                                  MODFLOW-NWT-SWR1 
      U.S. GEOLOGICAL SURVEY MODULAR FINITE-DIFFERENCE GROUNDWATER-FLOW MODEL
                            VERSION 1.2.0 03/01/2020
                    BASED ON MODFLOW-2005 VERSION 1.12.00 02/03/2017

 LIST FILE: nwt40_gmres.lst
                         UNIT   30

 OPENING 4010.hds
 FILE TYPE:DATA   UNIT   31   STATUS:UNKNOWN
 FORMAT:FORMATTED              ACCESS:SEQUENTIAL          

 OPENING graphs.out
 FILE TYPE:DATA(BINARY)   UNIT   33   STATUS:UNKNOWN
 FORMAT:BINARY                 ACCESS:SEQUENTIAL          

 OPENING hobs.dat
 FILE TYPE:DATA   UNIT   34   STATUS:UNKNOWN
 FORMAT:FORMATTED              ACCESS:SEQUENTIAL          

 OPENING lost_pumpage.dat
 FILE TYPE:DATA   UNIT   35   STATUS:UNKNOWN
 FORMAT:FORMATTED              ACCESS:SEQUENTIAL          

 OPENING cbc.bgt
 FILE TYPE:DATA(BINARY)   UNIT   39   STATUS:UNKNOWN
 FORMAT:BINARY                 ACCESS:SEQUENTIAL          
#                                                                                                                                                                                                                                                                                                           
#  Model Input files                                                                                                                                                                                                                                                                                        
#                                                                                                                                                                                                                                                                                                           

 OPENING tuc2011d.hob
 FILE TYPE:HOB   UNIT    8   STATUS:OLD    
 FORMAT:FORMATTED              ACCESS:SEQUENTIAL          

 OPENING tuchyd93.hyd
 FILE TYPE:HYD   UNIT    9   STATUS:OLD    
 FORMAT:FORMATTED              ACCESS:SEQUENTIAL          
#                                                                                                                                                                                                                                                                                                           
#  Parameter Files                                                                                                                                                                                                                                                                                          

 OPENING tuc1940q1.dis
 FILE TYPE:DIS   UNIT   10   STATUS:OLD    
 FORMAT:FORMATTED              ACCESS:SEQUENTIAL          

 OPENING tuc1940z.bas
 FILE TYPE:BAS6   UNIT   11   STATUS:OLD    
 FORMAT:FORMATTED              ACCESS:SEQUENTIAL          

 OPENING tuc1940t.upw
 FILE TYPE:UPW   UNIT   12   STATUS:OLD    
 FORMAT:FORMATTED              ACCESS:SEQUENTIAL          
#  Stress Files                                                                                                                                                                                                                                                                                             

 OPENING tuc2010q10.wel
 FILE TYPE:WEL   UNIT   13   STATUS:OLD    
 FORMAT:FORMATTED              ACCESS:SEQUENTIAL          

 OPENING TUC1940d.EVT
 FILE TYPE:EVT   UNIT   14   STATUS:OLD    
 FORMAT:FORMATTED              ACCESS:SEQUENTIAL          

 OPENING tuc2010a3.chd
 FILE TYPE:CHD   UNIT   15   STATUS:OLD    
 FORMAT:FORMATTED              ACCESS:SEQUENTIAL          

 OPENING tuc2010n1.rch
 FILE TYPE:RCH   UNIT   16   STATUS:OLD    
 FORMAT:FORMATTED              ACCESS:SEQUENTIAL          
#  Solver & Output Control                                                                                                                                                                                                                                                                                  
#NWT              19      xMD1.nwt                                                                                                                                                                                                                                                                          

 OPENING gmres1.nwt
 FILE TYPE:NWT   UNIT   19   STATUS:OLD    
 FORMAT:FORMATTED              ACCESS:SEQUENTIAL          

 OPENING tuc4010a1.oc
 FILE TYPE:OC   UNIT   22   STATUS:OLD    
 FORMAT:FORMATTED              ACCESS:SEQUENTIAL          

 BAS -- BASIC PACKAGE, VERSION 1.2.0, 3/01/2020 INPUT READ FROM UNIT   11
 
 MODFLOW was compiled using mixed precision
 Precision of REAL variables:           6
 Precision of DOUBLE PRECISION variables:          15

 DISCRETIZATION INPUT DATA READ FROM UNIT   10
 # TUCSON AMA GROUNDWATER FLOW MODEL - 1940-2010 UPDATE
 # MODEL DISCRETIZATION FILE: 08/08/2012
 # STEADY-STATE - TRANSIENT PHASE: 1940-2008  LENGTH=FEET  TIME=DAYS
    3 LAYERS       130 ROWS       100 COLUMNS
   71 STRESS PERIOD(S) IN SIMULATION
 MODEL TIME UNIT IS DAYS
 MODEL LENGTH UNIT IS FEET
  Confining bed flag for each layer:
   0   0   0

                     DELR =   2640.00    

                     DELC =   2640.00    



           TOP ELEVATION OF LAYER 1
 READING ON UNIT   10 WITH FORMAT: (15F5.0)            



             MODEL LAYER BOTTOM EL. FOR LAYER   1
 READING ON UNIT   10 WITH FORMAT: (15F5.0)            



             MODEL LAYER BOTTOM EL. FOR LAYER   2
 READING ON UNIT   10 WITH FORMAT: (15F5.0)            



             MODEL LAYER BOTTOM EL. FOR LAYER   3
 READING ON UNIT   10 WITH FORMAT: (15F5.0)            


 STRESS PERIOD     LENGTH       TIME STEPS     MULTIPLIER FOR DELT    SS FLAG
 ----------------------------------------------------------------------------
        1         366.0000          1                    1.000         SS
        2         365.0000         12                    1.000         TR
        3         365.0000         12                    1.000         TR
        4         365.0000         12                    1.000         TR
        5         366.0000         12                    1.000         TR
        6         365.0000         12                    1.000         TR
        7         365.0000         12                    1.000         TR
        8         365.0000         12                    1.000         TR
        9         366.0000         12                    1.000         TR
       10         365.0000         12                    1.000         TR
       11         365.0000         12                    1.000         TR
       12         365.0000         12                    1.000         TR
       13         366.0000         12                    1.000         TR
       14         365.0000         12                    1.000         TR
       15         365.0000         12                    1.000         TR
       16         365.0000         12                    1.000         TR
       17         366.0000         12                    1.000         TR
       18         365.0000         12                    1.000         TR
       19         365.0000         12                    1.000         TR
       20         365.0000         12                    1.000         TR
       21         366.0000         12                    1.000         TR
       22         365.0000         12                    1.000         TR
       23         365.0000         12                    1.000         TR
       24         365.0000         12                    1.000         TR
       25         366.0000         12                    1.000         TR
       26         365.0000         12                    1.000         TR
       27         365.0000         12                    1.000         TR
       28         365.0000         12                    1.000         TR
       29         366.0000         12                    1.000         TR
       30         365.0000         12                    1.000         TR
       31         365.0000         12                    1.000         TR
       32         365.0000         12                    1.000         TR
       33         366.0000         12                    1.000         TR
       34         365.0000         12                    1.000         TR
       35         365.0000         12                    1.000         TR
       36         365.0000         12                    1.000         TR
       37         366.0000         12                    1.000         TR
       38         365.0000         12                    1.000         TR
       39         365.0000         12                    1.000         TR
       40         365.0000         12                    1.000         TR
       41         366.0000         12                    1.000         TR
       42         365.0000         12                    1.000         TR
       43         365.0000         12                    1.000         TR
       44         365.0000         12                    1.000         TR
       45         366.0000         12                    1.000         TR
       46         365.0000         12                    1.000         TR
       47         365.0000         12                    1.000         TR
       48         365.0000         12                    1.000         TR
       49         366.0000         12                    1.000         TR
       50         365.0000         12                    1.000         TR
       51         365.0000         12                    1.000         TR
       52         365.0000         12                    1.000         TR
       53         366.0000         12                    1.000         TR
       54         365.0000         12                    1.000         TR
       55         365.0000         12                    1.000         TR
       56         365.0000         12                    1.000         TR
       57         366.0000         12                    1.000         TR
       58         365.0000         12                    1.000         TR
       59         365.0000         12                    1.000         TR
       60         365.0000         12                    1.000         TR
       61         366.0000         12                    1.000         TR
       62         365.0000         12                    1.000         TR
       63         365.0000         12                    1.000         TR
       64         365.0000         12                    1.000         TR
       65         366.0000         12                    1.000         TR
       66         365.0000         12                    1.000         TR
       67         365.0000         12                    1.000         TR
       68         365.0000         12                    1.000         TR
       69         366.0000         12                    1.000         TR
       70         365.0000         12                    1.000         TR
       71         365.0000         12                    1.000         TR

 COMBINED STEADY-STATE AND TRANSIENT SIMULATION



 
 # TUCSON AMA GROUNDWATER FLOW MODEL                                             
 # MODFLOW BASIC PACKAGE - 4/17/2014                                             
 # TRANSIENT PROJECTION: 1940-2010
 # MODEL UNITS: LENGTH=FEET  TIME=DAYS  PERLIN=365 DAYS
 THE FREE FORMAT OPTION HAS BEEN SELECTED



                     BOUNDARY ARRAY FOR LAYER   1
 READING ON UNIT   11 WITH FORMAT: (FREE)              



                     BOUNDARY ARRAY FOR LAYER   2
 READING ON UNIT   11 WITH FORMAT: (FREE)              



                     BOUNDARY ARRAY FOR LAYER   3
 READING ON UNIT   11 WITH FORMAT: (FREE)              

 AQUIFER HEAD WILL BE SET TO   0.0000     AT ALL NO-FLOW NODES (IBOUND=0).



                       INITIAL HEAD FOR LAYER   1
 READING ON UNIT   11 WITH FORMAT: (15F5.0)            



                       INITIAL HEAD FOR LAYER   2
 READING ON UNIT   11 WITH FORMAT: (15F5.0)            



                       INITIAL HEAD FOR LAYER   3
 READING ON UNIT   11 WITH FORMAT: (15F5.0)            

 OUTPUT CONTROL IS SPECIFIED ONLY AT TIME STEPS FOR WHICH OUTPUT IS DESIRED
 HEADS WILL BE SAVED WITH FORMAT: (20f7.1)            
 SAVED HEADS WILL BE LABELED
 COMPACT CELL-BY-CELL BUDGET FILES WILL BE WRITTEN
 HEAD PRINT FORMAT CODE IS   0    DRAWDOWN PRINT FORMAT CODE IS   0
 HEADS WILL BE SAVED ON UNIT   31    DRAWDOWNS WILL BE SAVED ON UNIT    0
 # NWT Input File
 # GMRES solver
 #HEADTOL  FLUXTOL MAXITEROUT THICKFACT LINMETH IPRNWT IBOTAV OPTIONS    DBDREDUCE DBDINCREASE DBDGAMMA MOMFACT BACKFLAG MAXBACKITER BACKTOL BACKREDUCE

 NWT1 -- Newton Solver, VERSION 1.2.0, 3/01/2020
         INPUT READ FROM UNIT 19

 SPECIFIED OPTION:
 SOLVER INPUT VALUES ARE SPECIFIED BY USER
 ***GMRES linear solver will be used***
 
   CONVERGENCE CRITERION OF   0.100000E-01 FOR HEAD SOLUTION
   AND A TOLERANCE OF   0.864000E+03 FOR FLOW SOLUTION AND 
   A MAXIMUM OF   200 OUTER ITERATIONS. 


   D-B-D REDUCTION FACTOR OF    0.900000E+00 AND 
   A D-B-D INCREASE FACTOR OF    0.100000E-03 AND 
   A D-B-D RELAXATION OF    0.000000E+00 AND 
   A MOMENTUM FACTOR OF    0.100000E+00 .


   BACKTRACKING IS ACTIVE 
   THE MAXIMUM NUMBER OF BACKTRACKS IS    30 AND 
   THE BACKTRACKING TOLERANCE IS    0.200000E+01 AND
   THE BACKTRACKING REDUCTION FACTOR IS    0.900000E+00

 GMRES -- LINEAR SOLUTION BY GMRES PACKAGE 
     adapted for HYDROTHERM by Kipp and others (2008)
     using software originally developed by Saad (1990) 19
     using algorithms described in Saad (2003)

 UPW1 -- UPSTREAM WEIGHTING FLOW PACKAGE, VERSION 1.2.0, 3/01/2020
         INPUT READ FROM UNIT 12

 # TUCSON AMA GROUNDWATER FLOW MODEL - 1940-2010
 # Upstream-Weighting Package (UPW): 04/17/2014
 # STEADY-STATE/TRANSIENT PHASE: 1940-2010
 CELL-BY-CELL FLOWS WILL BE SAVED ON UNIT   39
 No named parameters

   LAYER FLAGS:
 LAYER       LAYTYP          LAYAVG    CHANI           LAYVKA           LAYWET
 ---------------------------------------------------------------------------
    1             1             0     1.000E+00             1             0
    2             3             0     1.000E+00             1             0
    3             3             0     1.000E+00             1             0

   INTERPRETATION OF LAYER FLAGS:
                        INTERBLOCK     HORIZONTAL    DATA IN
         LAYER TYPE   TRANSMISSIVITY   ANISOTROPY   ARRAY VKA   WETTABILITY
 LAYER   (LAYTYP)        (LAYAVG)      (CHANI)     (LAYVKA)       (LAYWET)
 ---------------------------------------------------------------------------
    1   CONVERTIBLE      HARMONIC     1.000E+00    ANISOTROPY  NON-WETTABLE
    2   CONVERTIBLE      HARMONIC     1.000E+00    ANISOTROPY  NON-WETTABLE
    3   CONVERTIBLE      HARMONIC     1.000E+00    ANISOTROPY  NON-WETTABLE



              HYD. COND. ALONG ROWS FOR LAYER   1
 READING ON UNIT   12 WITH FORMAT: (FREE)              



            HORIZ. TO VERTICAL ANI. FOR LAYER   1
 READING ON UNIT   12 WITH FORMAT: (FREE)              

         SPECIFIC STORAGE =  1.000000E-06 FOR LAYER   1



                     SPECIFIC YIELD FOR LAYER   1
 READING ON UNIT   12 WITH FORMAT: (FREE)              



              HYD. COND. ALONG ROWS FOR LAYER   2
 READING ON UNIT   12 WITH FORMAT: (FREE)              



            HORIZ. TO VERTICAL ANI. FOR LAYER   2
 READING ON UNIT   12 WITH FORMAT: (FREE)              

         SPECIFIC STORAGE =  1.000000E-06 FOR LAYER   2



                     SPECIFIC YIELD FOR LAYER   2
 READING ON UNIT   12 WITH FORMAT: (FREE)              



              HYD. COND. ALONG ROWS FOR LAYER   3
 READING ON UNIT   12 WITH FORMAT: (FREE)              



            HORIZ. TO VERTICAL ANI. FOR LAYER   3
 READING ON UNIT   12 WITH FORMAT: (FREE)              

         SPECIFIC STORAGE =  1.000000E-06 FOR LAYER   3



                     SPECIFIC YIELD FOR LAYER   3
 READING ON UNIT   12 WITH FORMAT: (FREE)              

 WEL -- WELL PACKAGE FOR NWT VERSION 1.2.0,  3/01/2020 INPUT READ FROM UNIT   13
 # Tucson Model 1940 to 2010 Pumpage File
 # File Date: 02/3/2014
 # TARP pumpage reduced by 95%
 # Source: H:\TUCSON\GIS\SHAPEFILES\MODEL_PUMPAGE1940-2010_V7.DBF
 No named parameters
 MAXIMUM OF   6000 ACTIVE WELLS AT ONE TIME
 CELL-BY-CELL FLOWS WILL BE SAVED ON UNIT   39
 LISTS OF WELL CELLS WILL NOT BE PRINTED
 No named parameters
 
 NEGATIVE PUMPING RATES WILL BE REDUCED IF HEAD 
 FALLS WITHIN THE INTERVAL PHIRAMP TIMES THE CELL 
 THICKNESS. THE VALUE SPECIFIED FOR PHIRAMP IS  0.20000E-01
 WELLS WITH REDUCED PUMPING WILL BE REPORTED TO FILE UNIT NUMBER   35


     0 Well parameters

 EVT -- EVAPOTRANSPIRATION PACKAGE, VERSION 7, 5/2/2005
         INPUT READ FROM UNIT   14
 #  TUCSON MODEL UPDATE 1940-2009: EVT PACKAGE
 #  Et Rates converted to ac-ft per year
 #  All ET set to be drawn from the upper most layer
 #  Max ET Rate increased 25%:  Multiplier increased 1.7123E-5 -> 2.1406E-5
 No named parameters
 OPTION 1 -- EVAPOTRANSPIRATION FROM TOP LAYER
 CELL-BY-CELL FLOWS WILL BE SAVED ON UNIT   39


     0 Evapotranspiration parameters

 RCH -- RECHARGE PACKAGE, VERSION 7, 5/2/2005 INPUT READ FROM UNIT   16
 #  Recharge Package 1940 -> 2010 - 04/23/2014
 #  Ag recharge percentages are 33-28-25
 #  Recharge package with mountain-front and
 #  lagged USF recharge for LSCRP fixed
 #
 No named parameters
 OPTION 3 -- RECHARGE TO HIGHEST ACTIVE NODE IN EACH VERTICAL COLUMN
 CELL-BY-CELL FLOWS WILL BE SAVED ON UNIT   39


     0 Recharge parameters

 CHD -- TIME-VARIANT SPECIFIED-HEAD OPTION, VERSION 7, 5/2/2005
 INPUT READ FROM UNIT   15
 # Constant Head Package: 1940-2010
 # Tucson Groundwater Flow Model Transient Phase
 # Created using text file test1.txt - 2/23/2012
 # Pinal heads are 8 feet less than the simulated heads
 No named parameters
 MAXIMUM OF     63 TIME-VARIANT SPECIFIED-HEAD CELLS AT ONE TIME
 LISTS OF TIME-VARIANT SPECIFIED-HEAD CELLS WILL NOT BE PRINTED


     0 TIME-VARIANT SPECIFIED-HEAD PARAMETERS

 HYD -- HYDROGRAPH DATA FOR BAS PACKAGE, VERSION 7, 07/14/2006
         INPUT READ FROM UNIT  9
 HYDROGRAPH VALUES WILL BE SAVED ON UNIT:  33
 HYDROGRAPH VALUES AT DRY CELLS WILL BE:   -666.00    

 ARR INTYP  KLAY     XL            YL         HYDLBL
 ----------------------------------------------------------------
 HD   I      2   3.47192E+04   3.26268E+05  HDI002D-10-09-12CBC 
 HD   I      2   3.17765E+04   3.21662E+05  HDI002D-10-09-14CAA 
 HD   I      2   3.97224E+04   3.20634E+05  HDI002D-10-09-24DDD 
 HD   I      2   5.01975E+04   3.31511E+05  HDI002D-10-10-05DAD 
 HD   I      1   4.82614E+04   3.14342E+05  HDI001D-10-10-20DCC 
 HD   I      3   1.67478E+05   3.28933E+05  HDI003D-10-13-12DDA 
 HD   I      2   1.76558E+05   3.12876E+05  HDI002D-10-14-29DCA 
 HD   I      2   4.73470E+04   2.95857E+05  HDI002D-11-10-08DDD 
 HD   I      2   5.79608E+04   2.94613E+05  HDI002D-11-10-15AAD 
 HD   I      2   5.76848E+04   2.87946E+05  HDI002D-11-10-22ADD1
 HD   I      2   6.83984E+04   2.90443E+05  HDI002D-11-10-24AAA 
 HD   I      2   6.83752E+04   2.80643E+05  HDI002D-11-10-25DDA2
 HD   I      2   8.21897E+04   2.91320E+05  HDI002D-11-11-16CDD 
 HD   I      3   8.21897E+04   2.91320E+05  HDI003D-11-11-16CDD 
 HD   I      2   9.15970E+04   2.83522E+05  HDI002D-11-11-26BDC 
 HD   I      2   8.99591E+04   2.78171E+05  HDI002D-11-11-34ADD 
 HD   I      3   8.99591E+04   2.78171E+05  HDI003D-11-11-34ADD 
 HD   I      2   5.24757E+04   2.64220E+05  HDI002D-12-10-09DDD 
 HD   I      2   6.42663E+04   2.65469E+05  HDI002D-12-10-12CDD 
 HD   I      3   6.42663E+04   2.65469E+05  HDI003D-12-10-12CDD 
 HD   I      2   6.17957E+04   2.56212E+05  HDI002D-12-10-23DAB 
 HD   I      2   9.67122E+04   2.67653E+05  HDI002D-12-11-12BDC 
 HD   I      2   7.95526E+04   2.59503E+05  HDI002D-12-11-20AAA 
 HD   I      2   1.13419E+05   2.63386E+05  HDI002D-12-12-16BAD 
 HD   I      2   1.20787E+05   2.57115E+05  HDI002D-12-12-22ADC 
 HD   I      2   1.15974E+05   2.48533E+05  HDI002D-12-12-33AAA 
 HD   I      2   1.36473E+05   2.50639E+05  HDI002D-12-13-30DAC 
 HD   I      2   1.69992E+05   2.69936E+05  HDI002D-12-14-05CCD 
 HD   I      3   4.96494E+04   2.37760E+05  HDI003D-13-10-04CDD 
 HD   I      3   6.03308E+04   2.21868E+05  HDI003D-13-10-23CDD 
 HD   I      2   6.83726E+04   2.11442E+05  HDI002D-13-11-31CCC1
 HD   I      3   6.83726E+04   2.11442E+05  HDI003D-13-11-31CCC1
 HD   I      2   1.37326E+05   2.43566E+05  HDI002D-13-13-06AAA2
 HD   I      2   1.27238E+05   2.38920E+05  HDI002D-13-13-06DDD 
 HD   I      2   1.39899E+05   2.38212E+05  HDI002D-13-13-08BAA 
 HD   I      2   1.59116E+05   2.33159E+05  HDI002D-13-13-13BBA 
 HD   I      1   1.42469E+05   2.29623E+05  HDI001D-13-13-17DAD 
 HD   I      1   1.44785E+05   2.27704E+05  HDI001D-13-13-21BAA 
 HD   I      2   1.47530E+05   2.19924E+05  HDI002D-13-13-28ADD 
 HD   I      2   1.47273E+05   2.13662E+05  HDI002D-13-13-33DAC 
 HD   I      2   1.62726E+05   2.12350E+05  HDI002D-13-13-36DDC 
 HD   I      2   1.63835E+05   2.27705E+05  HDI002D-13-14-19BBB1
 HD   I      2   1.85724E+05   2.22468E+05  HDI002D-13-14-26BBB 
 HD   I      2   1.81350E+05   2.17816E+05  HDI002D-13-14-27CDC1
 HD   I      2   1.84441E+05   2.16607E+05  HDI002D-13-14-34AAD 
 HD   I      1   1.91401E+05   2.12372E+05  HDI001D-13-14-36CCD 
 HD   I      1   2.15602E+05   2.17461E+05  HDI001D-13-15-27DDC 
 HD   I      2   7.39286E+04   2.00922E+05  HDI002D-14-11-08CCC1
 HD   I      3   7.39286E+04   2.00922E+05  HDI003D-14-11-08CCC1
 HD   I      2   7.87016E+04   1.85152E+05  HDI002D-14-11-29DDD 
 HD   I      3   1.49677E+05   2.08711E+05  HDI003D-14-13-03CAC 
 HD   I      2   1.56033E+05   1.88406E+05  HDI002D-14-13-26DBB 
 HD   I      2   1.52252E+05   1.83052E+05  HDI002D-14-13-34ADC 
 HD   I      2   1.55001E+05   1.82547E+05  HDI002D-14-13-35CAB 
 HD   I      2   1.70627E+05   2.06292E+05  HDI002D-14-14-08BAB 
 HD   I      2   1.82652E+05   2.04281E+05  HDI002D-14-14-10ACC1
 HD   I      2   1.86523E+05   1.97819E+05  HDI002D-14-14-14CAC 
 HD   I      2   1.74670E+05   1.98415E+05  HDI002D-14-14-16CBB1
 HD   I      2   1.69775E+05   1.93563E+05  HDI002D-14-14-20CBB 
 HD   I      2   1.90402E+05   1.85499E+05  HDI002D-14-14-35AAA 
 HD   I      2   2.21974E+05   2.07776E+05  HDI002D-14-15-02DDA1
 HD   I      2   2.00261E+05   2.00463E+05  HDI002D-14-15-18AAC 
 HD   I      2   2.01057E+05   1.85311E+05  HDI002D-14-15-32BBB 
 HD   I      2   6.25477E+04   1.52763E+05  HDI002D-15-10-35AAA 
 HD   I      3   7.41254E+04   1.74757E+05  HDI003D-15-11-05CCD 
 HD   I      2   9.44895E+04   1.72190E+05  HDI002D-15-11-11ADD 
 HD   I      3   9.44895E+04   1.72190E+05  HDI003D-15-11-11ADD 
 HD   I      1   1.56722E+05   1.78910E+05  HDI001D-15-13-02ACA1
 HD   I      1   1.54144E+05   1.71940E+05  HDI001D-15-13-11CBA 
 HD   I      1   1.51394E+05   1.58706E+05  HDI001D-15-13-27ABB1
 HD   I      3   1.85084E+05   1.76604E+05  HDI003D-15-14-03DAD 
 HD   I      2   1.64631E+05   1.71336E+05  HDI002D-15-14-07CBC 
 HD   I      3   1.64120E+05   1.59214E+05  HDI003D-15-14-19CCC 
 HD   I      3   1.64123E+05   1.50829E+05  HDI003D-15-14-31CBB1
 HD   I      2   1.95823E+05   1.79748E+05  HDI002D-15-15-06BBB 
 HD   I      2   2.24838E+05   1.54948E+05  HDI002D-15-15-25DBC2
 HD   I      2   3.63196E+04   1.29003E+05  HDI002D-16-09-24DAC 
 HD   I      2   7.41227E+04   1.37178E+05  HDI002D-16-11-08CCC 
 HD   I      3   1.52254E+05   1.20824E+05  HDI003D-16-13-34AAB2
 HD   I      2   1.54404E+05   1.47695E+05  HDI002D-16-13S02BBA2
 HD   I      1   1.65161E+05   1.37495E+05  HDI001D-16-14-07CCD 
 HD   I      2   1.64907E+05   1.26989E+05  HDI002D-16-14-19CCD 
 HD   I      2   1.73942E+05   1.30732E+05  HDI002D-16-14-20ADA 
 HD   I      2   1.71539E+05   1.19012E+05  HDI002D-16-14-32BDD2
 HD   I      2   1.99234E+05   1.37930E+05  HDI002D-16-15-18ABD 
 HD   I      3   2.41308E+05   1.38623E+05  HDI003D-16-16-09DCD2
 HD   I      2   1.60003E+05   1.13653E+05  HDI002D-17-13-01CAB 
 HD   I      1   1.58891E+05   8.63786E+04  HDI001D-17-13-36CBC2
 HD   I      2   1.71895E+05   1.00122E+05  HDI002D-17-14-17DCC 
 HD   I      2   1.63972E+05   9.43603E+04  HDI002D-17-14-30BBB 
 HD   I      3   2.20194E+05   1.13015E+05  HDI003D-17-15-02DCD 
 HD   I      2   1.61219E+05   7.99142E+04  HDI002D-18-13-01CDA 
 HD   I      2   1.59669E+05   7.08220E+04  HDI002D-18-13-13CBA 
 HD   I      2   1.58637E+05   6.21349E+04  HDI002D-18-13-26AAD 
 HD   I      1   1.54583E+05   5.80934E+04  HDI001D-18-13-26CCD 
 HD   I      1   1.58984E+05   5.56700E+04  HDI001D-18-13-36BCC 
 HD   I      1   1.45440E+05   4.50633E+04  HDI001D-19-13-09CAA 
 HD   I      2   1.38013E+05   2.95093E+04  HDI002D-19-13-29BCC 
 HD   I      2   1.48392E+05   2.59222E+05  HDI002D-12-13-22BBB 
 HD   I      3   2.21974E+05   2.07776E+05  HDI003D-14-15-02DDA1
 HD   I      1   1.74585E+05   1.96698E+05  HDI001D-14-14-16CCC1
 HD   I      2   1.74585E+05   1.96698E+05  HDI002D-14-14-16CCC2
 HD   I      3   1.74585E+05   1.96698E+05  HDI003D-14-14-16CCC3
 HD   I      1   2.06415E+05   1.66732E+05  HDI001D-15-15-16CBB1
 HD   I      2   2.06415E+05   1.66732E+05  HDI002D-15-15-16CBB2
 HD   I      3   2.06415E+05   1.66732E+05  HDI003D-15-15-16CBB3
 HD   I      1   2.00772E+05   1.45509E+05  HDI001D-16-15-05CBC1
 HD   I      2   2.00772E+05   1.45509E+05  HDI002D-16-15-05CBC2
 HD   I      3   2.00772E+05   1.45509E+05  HDI003D-16-15-05CBC3

 OBS2BAS7 -- HEAD OBSERVATIONS, VERSION 2.0, 2/28/2006
 INPUT READ FROM UNIT   8
 # Tucson Update 1940-2011 Head Observation File
 # HOB Package with observed heads 1940-2011
 # Fall 2009 & Spring 2010 observations edited out

 NUMBER OF HEADS....................................: 8388
   NUMBER OF MULTILAYER HEADS.......................: 2556
   MAXIMUM NUMBER OF LAYERS FOR MULTILAYER HEADS....:    3
 HEAD OBSERVATIONS WILL BE SAVED ON UNIT............:   34
 SIMULATED EQUIVALENT HEAD AT DRY CELLS WILL BE:   -666.000    

 OBSERVED HEAD DATA -- TIME OFFSETS ARE MULTIPLIED BY:   1.0000    

                    REFER.
       OBSERVATION  STRESS    TIME
  OBS#    NAME      PERIOD   OFFSET    OBSERVATION
     1 3522-15-337      1    365.0       2965.    
 Observation within a steady-state time step has been moved to the end of the time step.
     2 3489-20-74       1    365.0       2968.    
 Observation within a steady-state time step has been moved to the end of the time step.
     3 3485-19-34       1    365.0       2966.    
 Observation within a steady-state time step has been moved to the end of the time step.
     4 3465-20-300      1    365.0       2968.    
 Observation within a steady-state time step has been moved to the end of the time step.
     5 3415-15-154      1    365.0       2955.    
 Observation within a steady-state time step has been moved to the end of the time step.
     6 3314-43-7        1    365.0       2830.    
 Observation within a steady-state time step has been moved to the end of the time step.
     7 3241-5-82        1    365.0       2709.    
 Observation within a steady-state time step has been moved to the end of the time step.
     8 3384-7-41        7    41.00       1626.    
     9 3384-12-10      12    10.00       1613.    
    10 3384-16-340     16    340.0       1572.    
    11 3384-21-335     21    335.0       1549.    
    12 3384-27-13      27    13.00       1531.    
    13 3384-32-5       32    5.000       1517.    
    14 3384-36-349     36    349.0       1499.    
    15 3400-55-321     55    321.0       1558.    
    16 3400-60-312     60    312.0       1568.    
    17 3400-65-363     65    363.0       1583.    
    18 3400-71-349     71    349.0       1600.    
    19 3401-55-321     55    321.0       1613.    
    20 3401-60-312     60    312.0       1621.    
    21 3401-65-363     65    363.0       1631.    
    22 3401-71-349     71    349.0       1650.    
    23 3397-11-313     11    313.0       1674.    
    24 3361-21-339     21    339.0       1555.    
    25 3361-32-5       32    5.000       1524.    
    26 3346-16-340     16    340.0       1573.    
    27 3346-21-339     21    339.0       1537.    
    28 3346-32-5       32    5.000       1495.    
    29 3346-37-349     37    349.0       1474.    
    30 3346-49-54      49    54.00       1506.    
    31 3346-60-319     60    319.0       1517.    
    32 3346-65-298     65    298.0       1529.    
    33 3346-71-13      71    13.00       1544.    
    34 3376-6-41        6    41.00       1665.    
    35 3376-12-46      12    46.00       1648.    
    36 3376-16-362     16    362.0       1635.    
    37 3376-21-336     21    336.0       1591.    
    38 3376-27-12      27    12.00       1561.    
    39 3376-38-1       38    1.000       1527.    
    40 3327-56-26      56    26.00       1579.    
    41 3327-66-18      66    18.00       1601.    
    42 3306-1-32        1    32.00       1688.    
 Observation within a steady-state time step has been moved to the end of the time step.
    43 3299-38-41      38    41.00       1546.    
    44 3311-15-337     15    337.0       2982.    
    45 3313-32-7       32    7.000       1579.    
    46 3313-38-1       38    1.000       1560.    
    47 3313-56-26      56    26.00       1601.    
    48 3313-66-18      66    18.00       1626.    
    49 3303-56-26      56    26.00       1600.    
    50 3303-66-18      66    18.00       1624.    
    51 3302-12-32      12    32.00       1680.    
    52 3302-56-26      56    26.00       1606.    
    53 3302-66-18      66    18.00       1633.    
    54 3320-2-305       2    305.0       1680.    
    55 3324-26-339     26    339.0       1550.    
    56 3312-16-335     16    335.0       1604.    
    57 3312-21-335     21    335.0       1576.    
    58 3312-32-1       32    1.000       1537.    
    59 3312-36-51      36    51.00       1523.    
    60 3294-1-60        1    60.00       1692.    
 Observation within a steady-state time step has been moved to the end of the time step.
    61 3291-16-362     16    362.0       1650.    
    62 3288-12-32      12    32.00       1671.    
    63 3288-21-335     21    335.0       1622.    
    64 3288-32-7       32    7.000       1602.    
    65 3282-21-336     21    336.0       1628.    
    66 3282-32-7       32    7.000       1604.    
    67 3282-38-10      38    10.00       1584.    
    68 3285-5-179       5    179.0       1699.    
    69 3285-11-25      11    25.00       1690.    
    70 3285-16-341     16    341.0       1666.    
    71 3285-21-336     21    336.0       1639.    
    72 3279-12-39      12    39.00       1679.    
    73 3279-16-362     16    362.0       1650.    
    74 3279-21-341     21    341.0       1639.    
    75 3279-27-28      27    28.00       1624.    
    76 3281-21-336     21    336.0       1635.    
    77 3281-37-350     37    350.0       1573.    
    78 3268-21-274     21    274.0       1652.    
    79 3268-38-6       38    6.000       1576.    
    80 3259-16-348     16    348.0       1684.    
     MULTIPLE LAYERS AND PROPORTIONS :    1, 0.19       2, 0.69       3, 0.12
    81 3259-32-7       32    7.000       1619.    
     MULTIPLE LAYERS AND PROPORTIONS :    2, 0.69       3, 0.31
    82 3259-36-350     36    350.0       1606.    
     MULTIPLE LAYERS AND PROPORTIONS :    2, 0.88       3, 0.12
    83 3237-1-365       1    365.0       1723.    
 Observation within a steady-state time step has been moved to the end of the time step.
    84 3237-3-355       3    355.0       1721.    
    85 3237-12-59      12    59.00       1713.    
    86 3234-6-284       6    284.0       1719.    
    87 3234-12-32      12    32.00       1710.    
    88 3234-16-348     16    348.0       1689.    
    89 3231-21-341     21    341.0       1661.    
     MULTIPLE LAYERS AND PROPORTIONS :    2, 0.28       3, 0.72
    90 3231-27-12      27    12.00       1642.    
     MULTIPLE LAYERS AND PROPORTIONS :    2, 0.28       3, 0.72
    91 3231-38-3       38    3.000       1595.    
     MULTIPLE LAYERS AND PROPORTIONS :    2, 0.28       3, 0.72
    92 3382-48-363     48    363.0       1604.    
    93 3383-48-363     48    363.0       1619.    
    94 3363-56-23      56    23.00       1632.    
    95 3363-66-18      66    18.00       1646.    
    96 3364-11-342     11    342.0       1694.    
     MULTIPLE LAYERS AND PROPORTIONS :    1, 0.15       2, 0.85
    97 3364-16-362     16    362.0       1671.    
     MULTIPLE LAYERS AND PROPORTIONS :    1, 0.15       2, 0.85
    98 3364-21-341     21    341.0       1646.    
     MULTIPLE LAYERS AND PROPORTIONS :    1, 0.15       2, 0.85
    99 3364-27-28      27    28.00       1639.    
   100 3364-32-4       32    4.000       1621.    
   101 3364-36-349     36    349.0       1617.    
   102 3364-43-19      43    19.00       1616.    
   103 3364-49-54      49    54.00       1622.    
   104 3364-56-25      56    25.00       1626.    
   105 3364-60-319     60    319.0       1628.    
   106 3364-65-298     65    298.0       1635.    
     MULTIPLE LAYERS AND PROPORTIONS :    1, 0.15       2, 0.85
   107 3364-71-13      71    13.00       1648.    
     MULTIPLE LAYERS AND PROPORTIONS :    1, 0.15       2, 0.85
   108 3364-71-365     71    365.0       1652.    
     MULTIPLE LAYERS AND PROPORTIONS :    1, 0.15       2, 0.85
   109 3370-56-25      56    25.00       1623.    
   110 3370-61-72      61    72.00       1628.    
   111 3370-66-18      66    18.00       1637.    
   112 3353-21-335     21    335.0       1659.    
   113 3353-27-12      27    12.00       1646.    
   114 3353-56-25      56    25.00       1627.    
   115 3353-66-18      66    18.00       1635.    
   116 3351-56-25      56    25.00       1628.    
   117 3351-61-72      61    72.00       1629.    
   118 3351-66-18      66    18.00       1639.    
   119 3310-56-23      56    23.00       1643.    
   120 3307-56-23      56    23.00       1644.    
   121 3307-61-73      61    73.00       1649.    
   122 3307-66-20      66    20.00       1676.    
   123 3292-56-25      56    25.00       1630.    
     MULTIPLE LAYERS AND PROPORTIONS :    2, 0.35       3, 0.65
   124 3292-61-73      61    73.00       1638.    
     MULTIPLE LAYERS AND PROPORTIONS :    2, 0.35       3, 0.65
   125 3292-66-19      66    19.00       1663.    
     MULTIPLE LAYERS AND PROPORTIONS :    2, 0.35       3, 0.65
   126 3278-11-296     11    296.0       1706.    
   127 3278-16-343     16    343.0       1693.    
   128 3278-21-340     21    340.0       1664.    
   129 3278-27-12      27    12.00       1658.    
   130 3278-32-4       32    4.000       1650.    
   131 3278-36-350     36    350.0       1648.    
   132 3278-43-19      43    19.00       1650.    
   133 3278-49-54      49    54.00       1656.    
   134 3278-56-25      56    25.00       1656.    
   135 3278-60-319     60    319.0       1660.    
   136 3278-65-301     65    301.0       1670.    
   137 3278-71-13      71    13.00       1684.    
   138 3278-71-365     71    365.0       1686.    
   139 3290-56-25      56    25.00       1638.    
     MULTIPLE LAYERS AND PROPORTIONS :    2, 0.84       3, 0.16
   140 3290-61-73      61    73.00       1647.    
     MULTIPLE LAYERS AND PROPORTIONS :    2, 0.84       3, 0.16
   141 3290-66-19      66    19.00       1671.    
     MULTIPLE LAYERS AND PROPORTIONS :    2, 0.84       3, 0.16
   142 3250-12-32      12    32.00       1737.    
   143 3250-16-363     16    363.0       1711.    
   144 3250-21-335     21    335.0       1688.    
   145 3250-32-7       32    7.000       1652.    
   146 3250-36-352     36    352.0       1632.    
   147 3308-56-25      56    25.00       1672.    
     MULTIPLE LAYERS AND PROPORTIONS :    2, 0.78       3, 0.22
   148 3308-61-73      61    73.00       1673.    
     MULTIPLE LAYERS AND PROPORTIONS :    2, 0.78       3, 0.22
   149 3308-66-20      66    20.00       1698.    
     MULTIPLE LAYERS AND PROPORTIONS :    2, 0.78       3, 0.22
   150 3249-16-363     16    363.0       1709.    
   151 3249-21-340     21    340.0       1688.    
   152 3249-36-352     36    352.0       1660.    
   153 3249-56-25      56    25.00       1688.    
   154 3249-61-73      61    73.00       1698.    
   155 3233-3-355       3    355.0       1744.    
   156 3233-6-341       6    341.0       1743.    
   157 3233-12-59      12    59.00       1737.    
   158 3233-16-311     16    311.0       1725.    
   159 3230-16-348     16    348.0       1722.    
     MULTIPLE LAYERS AND PROPORTIONS :    1, 0.45       2, 0.55
   160 3230-21-340     21    340.0       1705.    
     MULTIPLE LAYERS AND PROPORTIONS :    1, 0.45       2, 0.55
   161 3230-27-1       27    1.000       1694.    
     MULTIPLE LAYERS AND PROPORTIONS :    1, 0.45       2, 0.55
   162 3230-32-7       32    7.000       1702.    
     MULTIPLE LAYERS AND PROPORTIONS :    1, 0.45       2, 0.55
   163 3230-36-352     36    352.0       1682.    
   164 3230-56-25      56    25.00       1711.    
   165 3230-61-72      61    72.00       1716.    
   166 3229-17-4       17    4.000       1729.    
     MULTIPLE LAYERS AND PROPORTIONS :    1, 0.89       2, 0.11
   167 3247-61-73      61    73.00       1711.    
   168 3247-66-20      66    20.00       1715.    
   169 3368-56-25      56    25.00       1668.    
   170 3333-12-10      12    10.00       1744.    
   171 3333-16-343     16    343.0       1741.    
   172 3333-32-85      32    85.00       1693.    
   173 3333-35-53      35    53.00       1685.    
   174 3332-49-54      49    54.00       1671.    
   175 3332-56-26      56    26.00       1674.    
   176 3332-60-319     60    319.0       1679.    
   177 3332-65-298     65    298.0       1687.    
   178 3332-71-13      71    13.00       1699.    
   179 3332-71-365     71    365.0       1701.    
   180 3330-56-25      56    25.00       1659.    
   181 3315-48-300     48    300.0       1659.    
   182 3315-55-321     55    321.0       1664.    
   183 3315-60-312     60    312.0       1666.    
   184 3315-65-363     65    363.0       1676.    
   185 3315-71-351     71    351.0       1691.    
   186 3316-48-300     48    300.0       1658.    
   187 3316-55-321     55    321.0       1663.    
   188 3316-60-312     60    312.0       1666.    
   189 3316-65-363     65    363.0       1677.    
   190 3316-71-351     71    351.0       1692.    
   191 3284-56-25      56    25.00       1689.    
   192 3275-38-12      38    12.00       1709.    
   193 3287-38-24      38    24.00       1676.    
   194 3265-48-364     48    300.0       1671.    
   195 3265-56-25      56    25.00       1676.    
     MULTIPLE LAYERS AND PROPORTIONS :    2, 0.47       3, 0.53
   196 3228-56-20      56    20.00       1682.    
     MULTIPLE LAYERS AND PROPORTIONS :    1, 0.16       2, 0.84
   197 3228-61-73      61    73.00       1697.    
     MULTIPLE LAYERS AND PROPORTIONS :    1, 0.16       2, 0.84
   198 3228-66-19      66    19.00       1727.    
     MULTIPLE LAYERS AND PROPORTIONS :    1, 0.16       2, 0.84
   199 3347-20-74      20    74.00       2968.    
   200 3347-26-157     37    33.00       2967.    
   201 3347-37-33      37    33.00       2963.    
   202 3347-43-82      43    82.00       2967.    
   203 3347-48-336     48    336.0       2971.    
   204 3347-56-23      56    23.00       2969.    
   205 3347-61-62      61    62.00       2971.    
   206 3347-65-299     65    299.0       2969.    
   207 3347-71-12      71    12.00       2966.    
   208 3347-71-365     71    365.0       2966.    
   209 3378-15-337     15    337.0       2965.    
   210 3378-26-127     26    112.0       2971.    
   211 3378-33-312     33    312.0       2954.    
   212 3378-43-82      43    82.00       2971.    
   213 3378-48-337     48    337.0       2976.    
   214 3378-56-23      56    23.00       2976.    
   215 3378-61-62      61    62.00       2976.    
   216 3378-66-18      66    18.00       2972.    
   217 3336-71-63      71    63.00       2981.    
   218 3343-19-34      19    34.00       2966.    
   219 3343-26-121     26    121.0       2966.    
   220 3343-33-311     33    311.0       2952.    
   221 3343-43-82      43    82.00       2975.    
   222 3343-48-336     48    336.0       2978.    
   223 3343-56-25      56    25.00       2977.    
   224 3343-61-62      61    62.00       2975.    
   225 3343-66-24      66    24.00       2971.    
   226 3343-71-63      71    63.00       2963.    
   227 3322-20-300     20    300.0       2968.    
   228 3322-26-127     26    127.0       2967.    
   229 3322-48-337     48    337.0       2973.    
   230 3322-56-25      56    25.00       2963.    
   231 3322-61-60      61    60.00       2964.    
   232 3317-43-85      43    85.00       2959.    
   233 3317-56-25      56    25.00       2964.    
   234 3317-61-60      61    60.00       2961.    
   235 3317-66-27      66    27.00       2959.    
   236 3317-71-64      71    64.00       2962.    
   237 3300-56-26      56    26.00       2995.    
   238 3289-56-26      56    26.00       3009.    
   239 3289-61-65      61    65.00       2998.    
   240 3276-56-26      56    26.00       3018.    
   241 3270-56-26      56    26.00       2964.    
   242 3272-15-154     15    154.0       2955.    
   243 3272-26-125     26    125.0       2957.    
   244 3272-37-36      37    36.00       2947.    
   245 3272-43-27      43    27.00       2962.    
   246 3272-48-336     48    336.0       2970.    
   247 3272-56-26      56    26.00       2966.    
   248 3272-61-60      61    60.00       2962.    
   249 3272-71-12      71    12.00       2947.    
   250 3266-56-26      56    26.00       2956.    
   251 3260-33-313     33    313.0       3027.    
   252 3260-48-334     48    334.0       3050.    
   253 3260-56-26      56    26.00       3044.    
   254 3222-38-6       38    6.000       1714.    
   255 3213-12-324     12    324.0       1725.    
   256 3213-16-335     16    335.0       1716.    
   257 3213-21-335     21    335.0       1699.    
   258 3213-32-7       32    7.000       1680.    
   259 3213-38-10      38    10.00       1660.    
   260 3213-56-19      56    19.00       1689.    
   261 3205-2-230       2    230.0       1730.    
     MULTIPLE LAYERS AND PROPORTIONS :    1, 0.18       2, 0.82
   262 3205-22-37      22    37.00       1683.    
     MULTIPLE LAYERS AND PROPORTIONS :    1, 0.18       2, 0.82
   263 3191-2-188       2    188.0       1745.    
   264 3178-17-4       17    4.000       1713.    
   265 3178-22-37      22    37.00       1688.    
   266 3178-32-85      32    85.00       1649.    
   267 3178-36-65      36    65.00       1610.    
   268 3178-42-349     42    349.0       1623.    
   269 3178-48-341     48    341.0       1643.    
   270 3178-56-23      56    23.00       1655.    
   271 3178-60-319     60    319.0       1671.    
   272 3177-17-4       17    4.000       1713.    
     MULTIPLE LAYERS AND PROPORTIONS :    1, 0.18       2, 0.82
   273 3176-11-297     11    297.0       1743.    
     MULTIPLE LAYERS AND PROPORTIONS :    1, 0.31       2, 0.69
   274 3176-16-342     16    342.0       1718.    
     MULTIPLE LAYERS AND PROPORTIONS :    1, 0.31       2, 0.69
   275 3176-21-342     21    342.0       1691.    
     MULTIPLE LAYERS AND PROPORTIONS :    1, 0.31       2, 0.69
   276 3176-32-7       32    7.000       1633.    
   277 3176-34-339     34    339.0       1628.    
   278 3174-21-335     21    335.0       1695.    
   279 3174-56-19      56    19.00       1680.    
   280 3174-61-60      61    60.00       1690.    
   281 3174-66-24      66    24.00       1723.    
   282 3188-2-335       2    335.0       1755.    
   283 3188-6-341       6    341.0       1754.    
   284 3188-10-350     10    350.0       1750.    
   285 3199-38-6       38    6.000       1636.    
     MULTIPLE LAYERS AND PROPORTIONS :    2, 0.82       3, 0.18
   286 3199-48-337     48    337.0       1674.    
     MULTIPLE LAYERS AND PROPORTIONS :    2, 0.82       3, 0.18
   287 3199-61-60      61    60.00       1705.    
     MULTIPLE LAYERS AND PROPORTIONS :    2, 0.82       3, 0.18
   288 3175-48-337     48    337.0       1664.    
   289 3175-56-19      56    19.00       1686.    
   290 3175-66-24      66    24.00       1729.    
   291 3196-56-19      56    19.00       1688.    
   292 3171-21-335     21    335.0       1716.    
   293 3171-26-313     26    313.0       1672.    
   294 3171-48-337     48    337.0       1698.    
   295 3173-48-337     48    337.0       1672.    
   296 3173-56-19      56    19.00       1692.    
   297 3173-61-60      61    60.00       1701.    
   298 3173-66-20      66    20.00       1730.    
   299 3172-56-19      56    19.00       1682.    
   300 3172-61-60      61    60.00       1691.    
   301 3172-66-24      66    24.00       1723.    
   302 3163-12-91      12    91.00       1748.    
   303 3163-21-335     21    335.0       1701.    
   304 3197-42-351     42    351.0       1684.    
     MULTIPLE LAYERS AND PROPORTIONS :    2, 0.43       3, 0.57
   305 3197-48-348     48    348.0       1700.    
     MULTIPLE LAYERS AND PROPORTIONS :    2, 0.43       3, 0.57
   306 3197-56-4       56    4.000       1699.    
     MULTIPLE LAYERS AND PROPORTIONS :    2, 0.43       3, 0.57
   307 3197-61-5       61    5.000       1719.    
     MULTIPLE LAYERS AND PROPORTIONS :    2, 0.43       3, 0.57
   308 3197-65-361     65    361.0       1745.    
     MULTIPLE LAYERS AND PROPORTIONS :    2, 0.43       3, 0.57
   309 3197-71-355     71    355.0       1748.    
     MULTIPLE LAYERS AND PROPORTIONS :    2, 0.43       3, 0.57
   310 3170-16-348     16    348.0       1732.    
     MULTIPLE LAYERS AND PROPORTIONS :    1, 0.13       2, 0.87
   311 3170-21-342     21    342.0       1703.    
   312 3170-38-6       38    6.000       1681.    
   313 3170-42-351     42    351.0       1737.    
   314 3170-48-348     48    348.0       1694.    
   315 3170-55-354     55    354.0       1703.    
   316 3170-61-5       61    5.000       1725.    
   317 3170-65-361     65    361.0       1751.    
   318 3170-71-355     71    355.0       1754.    
   319 3139-21-343     21    343.0       1698.    
   320 3139-71-355     71    355.0       1747.    
   321 3143-17-5       17    5.000       1732.    
   322 3143-22-37      22    37.00       1708.    
   323 3143-27-31      27    31.00       1695.    
   324 3143-55-354     55    354.0       1694.    
   325 3143-61-5       61    5.000       1720.    
   326 3143-65-361     65    361.0       1757.    
   327 3143-71-355     71    355.0       1760.    
   328 3166-1-1         1    1.000       1748.    
 Observation within a steady-state time step has been moved to the end of the time step.
     MULTIPLE LAYERS AND PROPORTIONS :    2, 0.54       3, 0.46
   329 3166-11-335     11    335.0       1738.    
     MULTIPLE LAYERS AND PROPORTIONS :    2, 0.54       3, 0.46
   330 3166-21-335     21    335.0       1680.    
     MULTIPLE LAYERS AND PROPORTIONS :    2, 0.54       3, 0.46
   331 3100-16-338     16    338.0       1730.    
   332 3100-21-335     21    335.0       1703.    
     MULTIPLE LAYERS AND PROPORTIONS :    2, 0.76       3, 0.24
   333 3100-43-60      43    60.00       1625.    
   334 3100-55-354     55    354.0       1652.    
   335 3100-61-5       61    5.000       1659.    
     MULTIPLE LAYERS AND PROPORTIONS :    2, 0.76       3, 0.24
   336 3100-66-20      66    20.00       1692.    
     MULTIPLE LAYERS AND PROPORTIONS :    2, 0.76       3, 0.24
   337 3100-71-355     71    355.0       1709.    
     MULTIPLE LAYERS AND PROPORTIONS :    2, 0.76       3, 0.24
   338 2939-42-351     42    351.0       1635.    
   339 2939-61-5       61    5.000       1669.    
   340 2939-70-352     70    352.0       1725.    
   341 2939-71-355     71    355.0       1727.    
   342 3099-21-335     21    335.0       1697.    
     MULTIPLE LAYERS AND PROPORTIONS :    2, 0.38       3, 0.62
   343 3099-61-5       61    5.000       1665.    
     MULTIPLE LAYERS AND PROPORTIONS :    2, 0.38       3, 0.62
   344 3099-66-20      66    20.00       1698.    
     MULTIPLE LAYERS AND PROPORTIONS :    2, 0.38       3, 0.62
   345 3099-71-355     71    355.0       1723.    
     MULTIPLE LAYERS AND PROPORTIONS :    2, 0.38       3, 0.62
   346 3113-1-59        1    59.00       1773.    
 Observation within a steady-state time step has been moved to the end of the time step.
   347 3113-6-341       6    341.0       1768.    
   348 3113-12-362     12    362.0       1752.    
   349 3113-22-37      22    37.00       1703.    
   350 3113-27-31      27    31.00       1697.    
   351 3113-37-341     37    341.0       1653.    
   352 3113-42-349     42    349.0       1684.    
   353 3113-48-341     48    341.0       1664.    
   354 3113-55-354     55    354.0       1694.    
   355 3113-60-319     60    319.0       1716.    
   356 3113-65-298     65    298.0       1744.    
   357 3113-71-355     71    355.0       1757.    
   358 3097-12-170     12    170.0       1744.    
   359 3097-17-5       17    5.000       1723.    
   360 3097-42-351     42    351.0       1664.    
   361 3097-48-348     48    348.0       1679.    
   362 3097-55-354     55    354.0       1696.    
   363 3097-61-5       61    5.000       1718.    
   364 3097-65-361     65    361.0       1750.    
   365 3097-71-355     71    355.0       1760.    
   366 3095-42-351     42    351.0       1666.    
   367 3095-48-348     48    348.0       1682.    
   368 3095-55-354     55    354.0       1698.    
   369 3095-61-5       61    5.000       1720.    
   370 3095-65-361     65    361.0       1752.    
   371 3095-71-355     71    355.0       1761.    
   372 3096-8-283       8    283.0       1773.    
     MULTIPLE LAYERS AND PROPORTIONS :    1, 0.20       2, 0.80
   373 3096-17-5       17    5.000       1736.    
     MULTIPLE LAYERS AND PROPORTIONS :    1, 0.20       2, 0.80
   374 3096-21-335     21    335.0       1708.    
   375 3135-8-282       8    282.0       1775.    
     MULTIPLE LAYERS AND PROPORTIONS :    1, 0.11       2, 0.89
   376 3135-11-355     11    355.0       1766.    
     MULTIPLE LAYERS AND PROPORTIONS :    1, 0.11       2, 0.89
   377 3135-16-349     16    349.0       1739.    
     MULTIPLE LAYERS AND PROPORTIONS :    1, 0.11       2, 0.89
   378 3135-21-312     21    312.0       1708.    
   379 3135-26-292     26    292.0       1680.    
   380 3135-38-5       38    5.000       1641.    
   381 3135-48-337     48    337.0       1678.    
   382 3135-56-19      56    19.00       1700.    
   383 3135-61-60      61    60.00       1717.    
   384 3121-55-354     55    354.0       1713.    
   385 3121-61-5       61    5.000       1724.    
   386 3121-66-20      66    20.00       1760.    
   387 3121-71-365     71    365.0       1772.    
   388 3059-10-57      10    57.00       1779.    
   389 3059-17-5       17    5.000       1744.    
   390 3059-27-31      27    31.00       1693.    
   391 3059-37-33      37    33.00       1717.    
   392 3059-42-349     42    349.0       1681.    
   393 3059-48-342     48    342.0       1700.    
   394 3059-56-20      56    20.00       1720.    
   395 3059-60-319     60    319.0       1742.    
   396 3059-65-301     65    301.0       1777.    
   397 3059-71-365     71    365.0       1787.    
   398 3078-21-335     21    335.0       1709.    
   399 3080-11-297     11    297.0       1762.    
     MULTIPLE LAYERS AND PROPORTIONS :    1, 0.12       2, 0.88
   400 3075-56-20      56    20.00       1716.    
   401 3089-2-339       2    339.0       1774.    
   402 3089-6-341       6    341.0       1772.    
   403 3089-12-362     12    362.0       1763.    
   404 3089-16-313     16    313.0       1745.    
   405 3089-42-351     42    351.0       1693.    
   406 3089-65-361     65    361.0       1743.    
   407 3089-71-355     71    355.0       1755.    
   408 3053-11-297     11    297.0       1767.    
   409 3053-16-349     16    349.0       1741.    
   410 3053-22-37      22    37.00       1710.    
   411 3053-32-85      32    85.00       1668.    
   412 3053-42-351     42    351.0       1660.    
   413 3053-48-348     48    348.0       1676.    
   414 3053-55-353     55    353.0       1689.    
   415 3053-61-5       61    5.000       1706.    
   416 3053-65-361     65    361.0       1735.    
   417 3053-71-355     71    355.0       1752.    
   418 3050-55-353     55    353.0       1689.    
   419 3050-61-5       61    5.000       1706.    
   420 3050-65-361     65    361.0       1735.    
   421 3050-71-355     71    355.0       1752.    
   422 3076-37-33      37    33.00       1618.    
   423 3076-42-349     42    349.0       1656.    
   424 3076-48-342     48    342.0       1676.    
   425 3076-56-23      56    23.00       1695.    
   426 3076-61-60      61    60.00       1701.    
   427 3076-66-24      66    24.00       1742.    
   428 3077-55-354     55    354.0       1659.    
   429 3077-61-5       61    5.000       1665.    
   430 3077-66-20      66    20.00       1690.    
   431 3077-71-355     71    355.0       1718.    
   432 3065-48-348     48    348.0       1663.    
     MULTIPLE LAYERS AND PROPORTIONS :    2, 0.27       3, 0.73
   433 3021-1-107       1    107.0       1784.    
 Observation within a steady-state time step has been moved to the end of the time step.
   434 3021-7-3         7    3.000       1782.    
   435 3020-7-3         7    3.000       1781.    
   436 3020-12-59      12    59.00       1775.    
   437 3020-16-314     16    314.0       1755.    
   438 3020-22-37      22    37.00       1731.    
   439 3020-27-31      27    31.00       1697.    
   440 2989-12-59      12    59.00       1780.    
   441 2995-16-313     16    313.0       1748.    
   442 2995-22-37      22    37.00       1734.    
   443 2995-27-31      27    31.00       1719.    
   444 2995-32-85      32    85.00       1723.    
   445 3201-48-300     48    300.0       1676.    
   446 3201-55-321     55    321.0       1685.    
   447 3201-60-312     60    312.0       1692.    
   448 3201-65-363     65    363.0       1706.    
   449 3201-71-10      71    10.00       1726.    
   450 3202-48-300     48    300.0       1678.    
   451 3202-55-321     55    321.0       1687.    
   452 3202-60-312     60    312.0       1696.    
   453 3202-65-363     65    363.0       1720.    
   454 3202-71-10      71    10.00       1745.    
   455 3200-21-335     21    335.0       1763.    
   456 3200-32-6       32    6.000       1728.    
   457 3200-36-351     36    351.0       1712.    
   458 3200-49-54      49    54.00       1695.    
   459 3200-56-24      56    24.00       1699.    
   460 3200-60-319     60    319.0       1706.    
   461 3200-65-298     65    298.0       1718.    
   462 3200-71-365     71    365.0       1736.    
   463 3154-1-337       1    337.0       1791.    
 Observation within a steady-state time step has been moved to the end of the time step.
     MULTIPLE LAYERS AND PROPORTIONS :    1, 0.12       2, 0.88
   464 3154-6-286       6    286.0       1782.    
     MULTIPLE LAYERS AND PROPORTIONS :    1, 0.12       2, 0.88
   465 3154-11-298     11    298.0       1778.    
     MULTIPLE LAYERS AND PROPORTIONS :    1, 0.12       2, 0.88
   466 3154-16-358     16    358.0       1742.    
     MULTIPLE LAYERS AND PROPORTIONS :    1, 0.12       2, 0.88
   467 3154-21-343     21    343.0       1712.    
   468 3154-32-85      32    85.00       1660.    
   469 3154-37-33      37    33.00       1649.    
   470 3154-42-349     42    349.0       1651.    
   471 3150-48-337     48    337.0       1681.    
   472 3150-56-23      56    23.00       1704.    
   473 3150-60-319     60    319.0       1720.    
   474 3150-65-298     65    298.0       1752.    
   475 3150-71-11      71    11.00       1775.    
   476 3150-71-365     71    365.0       1776.    
   477 3158-12-85      12    85.00       1766.    
   478 3158-16-342     16    342.0       1740.    
   479 3158-21-346     21    346.0       1712.    
   480 3158-56-25      56    25.00       1700.    
   481 3158-61-55      61    55.00       1720.    
   482 3158-66-19      66    19.00       1753.    
   483 3179-8-1         8    1.000       1777.    
     MULTIPLE LAYERS AND PROPORTIONS :    1, 0.12       2, 0.88
   484 3151-12-33      12    33.00       1773.    
   485 3151-16-342     16    342.0       1740.    
   486 3151-21-346     21    346.0       1717.    
   487 3151-56-23      56    23.00       1705.    
   488 3151-61-55      61    55.00       1725.    
   489 3151-66-18      66    18.00       1758.    
   490 3167-34-152     34    152.0       1703.    
   491 3103-38-3       38    3.000       1652.    
   492 3101-66-24      66    24.00       1760.    
     MULTIPLE LAYERS AND PROPORTIONS :    2, 0.76       3, 0.24
   493 3105-8-1         8    1.000       1789.    
     MULTIPLE LAYERS AND PROPORTIONS :    1, 0.19       2, 0.81
   494 3105-56-23      56    23.00       1710.    
   495 3105-61-55      61    55.00       1731.    
   496 3105-66-18      66    18.00       1767.    
   497 3142-12-1       12    1.000       1778.    
     MULTIPLE LAYERS AND PROPORTIONS :    1, 0.43       2, 0.57
   498 3142-16-342     16    342.0       1744.    
     MULTIPLE LAYERS AND PROPORTIONS :    1, 0.43       2, 0.57
   499 3142-56-24      56    24.00       1707.    
   500 3142-61-55      61    55.00       1726.    
   501 3142-66-19      66    19.00       1759.    
   502 3138-21-346     21    346.0       1718.    
   503 3138-56-24      56    24.00       1708.    
   504 3138-61-55      61    55.00       1727.    
   505 3138-66-19      66    19.00       1760.    
   506 3119-48-337     48    337.0       1687.    
   507 3119-56-23      56    23.00       1712.    
   508 3119-61-60      61    60.00       1732.    
   509 3119-66-18      66    18.00       1768.    
   510 3130-2-305       2    305.0       1828.    
   511 3108-8-32        8    32.00       1790.    
     MULTIPLE LAYERS AND PROPORTIONS :    1, 0.45       2, 0.55
   512 3104-56-26      56    26.00       1723.    
   513 3104-61-55      61    55.00       1744.    
   514 3104-66-19      66    19.00       1777.    
   515 3102-56-26      56    26.00       1724.    
     MULTIPLE LAYERS AND PROPORTIONS :    2, 0.93       3, 0.07
   516 3102-61-55      61    55.00       1744.    
     MULTIPLE LAYERS AND PROPORTIONS :    2, 0.93       3, 0.07
   517 3102-66-19      66    19.00       1776.    
     MULTIPLE LAYERS AND PROPORTIONS :    2, 0.93       3, 0.07
   518 3140-48-300     48    300.0       1690.    
   519 3141-48-300     48    300.0       1693.    
   520 3061-66-19      66    19.00       1799.    
     MULTIPLE LAYERS AND PROPORTIONS :    2, 0.66       3, 0.34
   521 3085-1-337       1    337.0       1814.    
 Observation within a steady-state time step has been moved to the end of the time step.
     MULTIPLE LAYERS AND PROPORTIONS :    1, 0.27       2, 0.57       3, 0.16
   522 3085-6-286       6    286.0       1805.    
     MULTIPLE LAYERS AND PROPORTIONS :    1, 0.27       2, 0.57       3, 0.16
   523 3085-11-361     11    361.0       1794.    
     MULTIPLE LAYERS AND PROPORTIONS :    1, 0.27       2, 0.57       3, 0.16
   524 3085-16-350     16    350.0       1764.    
     MULTIPLE LAYERS AND PROPORTIONS :    1, 0.27       2, 0.57       3, 0.16
   525 3085-21-346     21    346.0       1739.    
     MULTIPLE LAYERS AND PROPORTIONS :    2, 0.84       3, 0.16
   526 3064-56-25      56    25.00       1746.    
   527 3083-56-23      56    23.00       1725.    
     MULTIPLE LAYERS AND PROPORTIONS :    2, 0.60       3, 0.40
   528 3083-61-55      61    55.00       1747.    
     MULTIPLE LAYERS AND PROPORTIONS :    2, 0.60       3, 0.40
   529 3083-66-18      66    18.00       1785.    
     MULTIPLE LAYERS AND PROPORTIONS :    2, 0.60       3, 0.40
   530 3084-10-60      10    60.00       1787.    
     MULTIPLE LAYERS AND PROPORTIONS :    1, 0.15       2, 0.85
   531 3084-48-341     48    341.0       1690.    
   532 3084-56-23      56    23.00       1716.    
   533 3084-61-55      61    55.00       1737.    
   534 3084-66-18      66    18.00       1775.    
   535 3081-48-341     48    341.0       1690.    
   536 3081-56-23      56    23.00       1714.    
   537 3081-61-55      61    55.00       1736.    
   538 3081-66-18      66    18.00       1774.    
   539 3079-1-365       1    365.0       1791.    
 Observation within a steady-state time step has been moved to the end of the time step.
   540 3058-48-337     48    337.0       1697.    
   541 3058-56-23      56    23.00       1722.    
   542 3058-61-55      61    55.00       1745.    
   543 3058-66-18      66    18.00       1782.    
   544 3086-12-247     12    247.0       1778.    
     MULTIPLE LAYERS AND PROPORTIONS :    1, 0.43       2, 0.57
   545 3107-1-365       1    365.0       1784.    
 Observation within a steady-state time step has been moved to the end of the time step.
   546 3107-11-334     11    334.0       1774.    
   547 3040-10-32      10    32.00       1777.    
   548 3017-71-5       71    5.000       1785.    
   549 3017-71-365     71    365.0       1787.    
   550 3015-55-354     55    354.0       1715.    
   551 3015-71-5       71    5.000       1790.    
   552 3015-71-365     71    365.0       1792.    
   553 3054-10-32      10    32.00       1780.    
   554 3046-12-247     12    247.0       1759.    
   555 3046-16-350     16    350.0       1748.    
   556 3046-21-343     21    343.0       1714.    
   557 3046-32-8       32    8.000       1684.    
   558 3046-36-87      36    87.00       1671.    
   559 3036-11-18      11    18.00       1788.    
     MULTIPLE LAYERS AND PROPORTIONS :    1, 0.22       2, 0.78
   560 3036-16-350     16    350.0       1755.    
     MULTIPLE LAYERS AND PROPORTIONS :    1, 0.22       2, 0.78
   561 3036-21-335     21    335.0       1722.    
     MULTIPLE LAYERS AND PROPORTIONS :    1, 0.22       2, 0.78
   562 3030-12-247     12    247.0       1770.    
     MULTIPLE LAYERS AND PROPORTIONS :    1, 0.19       2, 0.81
   563 3030-16-350     16    350.0       1757.    
     MULTIPLE LAYERS AND PROPORTIONS :    1, 0.19       2, 0.81
   564 3030-21-346     21    346.0       1725.    
     MULTIPLE LAYERS AND PROPORTIONS :    1, 0.19       2, 0.81
   565 3038-1-337       1    337.0       1816.    
 Observation within a steady-state time step has been moved to the end of the time step.
     MULTIPLE LAYERS AND PROPORTIONS :    1, 0.19       2, 0.77       3, 0.04
   566 3038-6-286       6    286.0       1808.    
     MULTIPLE LAYERS AND PROPORTIONS :    1, 0.19       2, 0.77       3, 0.04
   567 3038-11-338     11    338.0       1796.    
     MULTIPLE LAYERS AND PROPORTIONS :    1, 0.19       2, 0.77       3, 0.04
   568 3038-16-350     16    350.0       1765.    
     MULTIPLE LAYERS AND PROPORTIONS :    1, 0.19       2, 0.77       3, 0.04
   569 3038-21-312     21    312.0       1732.    
     MULTIPLE LAYERS AND PROPORTIONS :    1, 0.19       2, 0.77       3, 0.04
   570 3038-42-349     42    349.0       1678.    
     MULTIPLE LAYERS AND PROPORTIONS :    1, 0.19       2, 0.77       3, 0.04
   571 3035-48-337     48    337.0       1709.    
     MULTIPLE LAYERS AND PROPORTIONS :    2, 0.33       3, 0.67
   572 3035-56-23      56    23.00       1737.    
     MULTIPLE LAYERS AND PROPORTIONS :    2, 0.33       3, 0.67
   573 3035-60-319     60    319.0       1755.    
     MULTIPLE LAYERS AND PROPORTIONS :    2, 0.33       3, 0.67
   574 3035-66-18      66    18.00       1790.    
     MULTIPLE LAYERS AND PROPORTIONS :    2, 0.33       3, 0.67
   575 3035-71-11      71    11.00       1802.    
     MULTIPLE LAYERS AND PROPORTIONS :    2, 0.33       3, 0.67
   576 3035-71-365     71    365.0       1804.    
     MULTIPLE LAYERS AND PROPORTIONS :    2, 0.33       3, 0.67
   577 3007-12-76      12    76.00       1799.    
     MULTIPLE LAYERS AND PROPORTIONS :    1, 0.16       2, 0.76       3, 0.08
   578 3007-48-337     48    337.0       1714.    
     MULTIPLE LAYERS AND PROPORTIONS :    2, 0.93       3, 0.07
   579 3007-56-23      56    23.00       1743.    
     MULTIPLE LAYERS AND PROPORTIONS :    2, 0.93       3, 0.07
   580 3007-61-55      61    55.00       1764.    
   581 3007-66-18      66    18.00       1797.    
   582 3032-10-32      10    32.00       1837.    
     MULTIPLE LAYERS AND PROPORTIONS :    1, 0.10       2, 0.36       3, 0.54
   583 3032-48-337     48    337.0       1721.    
     MULTIPLE LAYERS AND PROPORTIONS :    1, 0.10       2, 0.36       3, 0.54
   584 3032-56-23      56    23.00       1749.    
     MULTIPLE LAYERS AND PROPORTIONS :    1, 0.10       2, 0.36       3, 0.54
   585 3032-61-55      61    55.00       1769.    
     MULTIPLE LAYERS AND PROPORTIONS :    1, 0.10       2, 0.36       3, 0.54
   586 3032-66-27      66    27.00       1792.    
     MULTIPLE LAYERS AND PROPORTIONS :    1, 0.10       2, 0.36       3, 0.54
   587 3006-56-23      56    23.00       1745.    
   588 3006-61-55      61    55.00       1767.    
   589 3006-66-18      66    18.00       1801.    
   590 3005-10-60      10    60.00       1836.    
   591 3005-48-337     48    337.0       1770.    
   592 3005-56-23      56    23.00       1795.    
   593 3005-61-55      61    55.00       1805.    
   594 3005-66-18      66    18.00       1812.    
   595 3002-56-23      56    23.00       1794.    
   596 3002-61-55      61    55.00       1805.    
   597 3002-66-19      66    19.00       1810.    
   598 3182-48-337     48    337.0       1674.    
   599 3182-56-19      56    19.00       1692.    
   600 3182-61-60      61    60.00       1708.    
   601 3182-66-27      66    27.00       1739.    
   602 3155-8-1         8    1.000       1775.    
   603 3155-48-337     48    337.0       1676.    
   604 3155-56-19      56    19.00       1717.    
   605 3155-66-24      66    24.00       1748.    
   606 2695-43-60      43    60.00       1677.    
   607 2695-55-354     55    354.0       1712.    
   608 2695-61-7       61    7.000       1726.    
   609 2695-65-361     65    361.0       1770.    
   610 2695-71-5       71    5.000       1782.    
   611 2695-71-365     71    365.0       1784.    
   612 3037-48-364     48    364.0       1774.    
   613 3009-56-25      56    25.00       1908.    
   614 3009-61-55      61    55.00       1906.    
   615 3001-56-25      56    25.00       1910.    
   616 3001-61-55      61    55.00       1908.    
   617 3004-17-1       17    1.000       2018.    
   618 3004-22-1       22    1.000       2015.    
   619 3004-27-32      27    32.00       2001.    
   620 3004-37-36      37    36.00       2005.    
   621 3004-66-24      66    24.00       2001.    
   622 3004-71-57      71    57.00       1994.    
   623 3010-48-334     48    334.0       2113.    
   624 3010-56-27      56    27.00       2109.    
   625 3039-42-364     42    364.0       2228.    
   626 3039-48-335     48    335.0       2245.    
   627 3039-56-25      56    25.00       2227.    
   628 3019-31-297     31    297.0       2244.    
   629 2997-36-32      36    32.00       2229.    
   630 2997-43-41      43    41.00       2230.    
   631 2997-48-334     48    334.0       2229.    
   632 3012-31-339     31    339.0       2316.    
   633 3016-8-222       8    222.0       2284.    
   634 3016-11-53      11    53.00       2300.    
   635 3014-42-365     42    365.0       2297.    
   636 3014-48-334     48    334.0       2299.    
   637 3014-56-24      56    24.00       2299.    
   638 3014-61-59      61    59.00       2298.    
   639 3014-66-25      66    25.00       2291.    
   640 3014-71-54      71    54.00       2278.    
   641 3013-43-6       43    6.000       2316.    
   642 3013-48-335     48    335.0       2319.    
   643 3013-56-26      56    26.00       2319.    
   644 3013-66-28      66    28.00       2310.    
   645 3041-66-33      66    33.00       2468.    
   646 3041-71-61      71    61.00       2459.    
   647 3055-11-56      11    56.00       2467.    
   648 3055-43-6       43    6.000       2457.    
   649 3055-48-335     48    335.0       2469.    
   650 3055-56-19      56    19.00       2469.    
   651 3251-48-334     48    334.0       3019.    
   652 3246-56-26      56    26.00       2986.    
   653 3248-16-116     16    116.0       2955.    
   654 3248-21-116     21    116.0       2975.    
   655 3248-26-125     26    125.0       2959.    
   656 3248-31-111     31    111.0       2961.    
   657 3248-37-36      37    36.00       2957.    
   658 3248-43-81      43    81.00       2972.    
   659 3248-48-334     48    334.0       2988.    
   660 3248-56-26      56    26.00       2987.    
   661 3248-71-61      71    61.00       2965.    
   662 3242-56-26      56    26.00       2985.    
     MULTIPLE LAYERS AND PROPORTIONS :    2, 0.82       3, 0.18
   663 3241-61-61      61    61.00       2998.    
   664 3241-66-18      66    18.00       2981.    
   665 3241-71-61      71    61.00       3005.    
   666 3235-71-64      71    64.00       3012.    
   667 3221-66-33      66    33.00       2925.    
   668 3262-42-335     42    335.0       2939.    
   669 3262-49-8       49    8.000       2944.    
   670 3262-55-342     55    342.0       2943.    
   671 3262-61-35      61    35.00       2939.    
   672 3262-66-33      66    33.00       2931.    
   673 3262-71-323     71    323.0       2925.    
   674 3256-27-125     27    125.0       2931.    
     MULTIPLE LAYERS AND PROPORTIONS :    2, 0.47       3, 0.53
   675 3256-37-36      37    36.00       2916.    
     MULTIPLE LAYERS AND PROPORTIONS :    2, 0.47       3, 0.53
   676 3256-48-356     48    356.0       2938.    
     MULTIPLE LAYERS AND PROPORTIONS :    2, 0.47       3, 0.53
   677 3256-55-342     55    342.0       2934.    
     MULTIPLE LAYERS AND PROPORTIONS :    2, 0.47       3, 0.53
   678 3256-66-33      66    33.00       2926.    
     MULTIPLE LAYERS AND PROPORTIONS :    2, 0.47       3, 0.53
   679 3256-71-323     71    323.0       2917.    
     MULTIPLE LAYERS AND PROPORTIONS :    2, 0.47       3, 0.53
   680 3252-43-81      43    81.00       2932.    
   681 3252-48-336     48    336.0       2934.    
   682 3252-56-27      56    27.00       2930.    
   683 3252-60-323     60    323.0       2929.    
   684 3252-65-299     65    299.0       2923.    
   685 3252-71-365     71    365.0       2915.    
   686 3253-55-342     55    342.0       2930.    
   687 3253-60-335     60    335.0       2927.    
   688 3253-66-34      66    34.00       2925.    
   689 3253-71-323     71    323.0       2917.    
   690 3263-16-299     16    299.0       2905.    
     MULTIPLE LAYERS AND PROPORTIONS :    2, 0.70       3, 0.30
   691 3263-26-127     26    127.0       2904.    
     MULTIPLE LAYERS AND PROPORTIONS :    2, 0.70       3, 0.30
   692 3263-43-60      43    60.00       2902.    
     MULTIPLE LAYERS AND PROPORTIONS :    2, 0.70       3, 0.30
   693 3263-48-356     48    356.0       2911.    
     MULTIPLE LAYERS AND PROPORTIONS :    2, 0.70       3, 0.30
   694 3263-56-24      56    24.00       2900.    
     MULTIPLE LAYERS AND PROPORTIONS :    2, 0.70       3, 0.30
   695 3263-66-33      66    33.00       2901.    
     MULTIPLE LAYERS AND PROPORTIONS :    2, 0.70       3, 0.30
   696 3263-71-365     71    365.0       2895.    
     MULTIPLE LAYERS AND PROPORTIONS :    2, 0.70       3, 0.30
   697 3224-56-27      56    27.00       2930.    
   698 3209-33-314     33    314.0       2882.    
   699 3210-43-81      43    81.00       2884.    
     MULTIPLE LAYERS AND PROPORTIONS :    2, 0.11       3, 0.89
   700 3210-48-336     48    336.0       2887.    
     MULTIPLE LAYERS AND PROPORTIONS :    2, 0.11       3, 0.89
   701 3210-56-26      56    26.00       2894.    
     MULTIPLE LAYERS AND PROPORTIONS :    2, 0.11       3, 0.89
   702 3195-33-32      33    32.00       2815.    
     MULTIPLE LAYERS AND PROPORTIONS :    2, 0.29       3, 0.71
   703 3180-34-152     34    152.0       2820.    
     MULTIPLE LAYERS AND PROPORTIONS :    2, 0.08       3, 0.92
   704 3184-66-28      66    28.00       2857.    
   705 3184-71-62      71    62.00       2852.    
   706 3186-66-28      66    28.00       2856.    
   707 3186-71-60      71    60.00       2852.    
   708 3183-66-31      66    31.00       2872.    
   709 3207-43-7       43    7.000       2948.    
   710 3207-48-334     48    334.0       2964.    
   711 3207-56-26      56    26.00       2976.    
   712 3190-43-7       43    7.000       2890.    
   713 3190-48-336     48    336.0       2901.    
   714 3190-56-25      56    25.00       2904.    
   715 3194-71-62      71    62.00       2908.    
   716 3192-66-34      66    34.00       2931.    
   717 3192-71-60      71    60.00       2929.    
   718 3187-43-7       43    7.000       2909.    
     MULTIPLE LAYERS AND PROPORTIONS :    2, 0.48       3, 0.52
   719 3187-48-334     48    334.0       2917.    
     MULTIPLE LAYERS AND PROPORTIONS :    2, 0.48       3, 0.52
   720 3203-71-62      71    62.00       2945.    
   721 3165-71-62      71    62.00       2841.    
   722 3148-43-7       43    7.000       2842.    
     MULTIPLE LAYERS AND PROPORTIONS :    2, 0.20       3, 0.80
   723 3157-71-62      71    62.00       2841.    
   724 3152-71-62      71    62.00       2846.    
   725 3169-43-8       43    8.000       2834.    
   726 3169-48-336     48    336.0       2821.    
   727 3169-66-34      66    34.00       2822.    
   728 3169-71-61      71    61.00       2805.    
   729 3168-43-7       43    7.000       2830.    
     MULTIPLE LAYERS AND PROPORTIONS :    2, 0.70       3, 0.30
   730 3168-56-26      56    26.00       2830.    
     MULTIPLE LAYERS AND PROPORTIONS :    2, 0.70       3, 0.30
   731 3168-66-34      66    34.00       2829.    
     MULTIPLE LAYERS AND PROPORTIONS :    2, 0.70       3, 0.30
   732 3156-27-289     27    289.0       2792.    
     MULTIPLE LAYERS AND PROPORTIONS :    2, 0.40       3, 0.60
   733 3144-43-7       43    7.000       2755.    
     MULTIPLE LAYERS AND PROPORTIONS :    2, 0.26       3, 0.74
   734 3144-56-25      56    25.00       2765.    
     MULTIPLE LAYERS AND PROPORTIONS :    2, 0.26       3, 0.74
   735 3144-66-34      66    34.00       2744.    
     MULTIPLE LAYERS AND PROPORTIONS :    2, 0.26       3, 0.74
   736 3144-71-60      71    60.00       2734.    
     MULTIPLE LAYERS AND PROPORTIONS :    2, 0.26       3, 0.74
   737 3110-43-5       43    5.000       2722.    
   738 3110-48-335     48    335.0       2730.    
   739 3136-43-7       43    7.000       2851.    
     MULTIPLE LAYERS AND PROPORTIONS :    2, 0.27       3, 0.73
   740 3136-48-334     48    334.0       2861.    
     MULTIPLE LAYERS AND PROPORTIONS :    2, 0.27       3, 0.73
   741 3136-56-26      56    26.00       2868.    
     MULTIPLE LAYERS AND PROPORTIONS :    2, 0.27       3, 0.73
   742 3136-66-35      66    35.00       2846.    
     MULTIPLE LAYERS AND PROPORTIONS :    2, 0.27       3, 0.73
   743 3136-71-61      71    61.00       2827.    
     MULTIPLE LAYERS AND PROPORTIONS :    2, 0.27       3, 0.73
   744 3093-5-82        5    82.00       2709.    
   745 3093-6-97        6    97.00       2709.    
   746 3093-16-133     16    133.0       2692.    
   747 3093-26-124     26    124.0       2688.    
   748 3093-37-37      37    37.00       2684.    
   749 3093-43-7       43    7.000       2727.    
   750 3094-48-337     48    337.0       2811.    
     MULTIPLE LAYERS AND PROPORTIONS :    2, 0.48       3, 0.52
   751 3094-66-33      66    33.00       2785.    
     MULTIPLE LAYERS AND PROPORTIONS :    2, 0.48       3, 0.52
   752 3094-71-61      71    61.00       2774.    
     MULTIPLE LAYERS AND PROPORTIONS :    2, 0.48       3, 0.52
   753 3057-48-337     48    337.0       2564.    
   754 3057-56-25      56    25.00       2558.    
   755 3011-48-337     48    337.0       2533.    
     MULTIPLE LAYERS AND PROPORTIONS :    2, 0.55       3, 0.45
   756 3011-66-33      66    33.00       2460.    
     MULTIPLE LAYERS AND PROPORTIONS :    2, 0.55       3, 0.45
   757 3011-71-61      71    61.00       2447.    
     MULTIPLE LAYERS AND PROPORTIONS :    2, 0.55       3, 0.45
   758 3026-48-337     48    337.0       2520.    
     MULTIPLE LAYERS AND PROPORTIONS :    2, 0.63       3, 0.37
   759 3026-56-25      56    25.00       2554.    
     MULTIPLE LAYERS AND PROPORTIONS :    2, 0.63       3, 0.37
   760 2999-16-361     16    361.0       2530.    
     MULTIPLE LAYERS AND PROPORTIONS :    2, 0.29       3, 0.71
   761 2999-22-31      22    31.00       2533.    
     MULTIPLE LAYERS AND PROPORTIONS :    2, 0.29       3, 0.71
   762 2999-27-11      27    11.00       2522.    
     MULTIPLE LAYERS AND PROPORTIONS :    2, 0.29       3, 0.71
   763 2999-31-351     31    351.0       2526.    
     MULTIPLE LAYERS AND PROPORTIONS :    2, 0.29       3, 0.71
   764 2999-37-343     37    343.0       2520.    
     MULTIPLE LAYERS AND PROPORTIONS :    2, 0.29       3, 0.71
   765 2999-56-25      56    25.00       2568.    
     MULTIPLE LAYERS AND PROPORTIONS :    2, 0.29       3, 0.71
   766 2999-66-33      66    33.00       2500.    
     MULTIPLE LAYERS AND PROPORTIONS :    2, 0.29       3, 0.71
   767 2999-71-61      71    61.00       2475.    
     MULTIPLE LAYERS AND PROPORTIONS :    2, 0.29       3, 0.71
   768 2994-43-5       43    5.000       2561.    
   769 2994-56-25      56    25.00       2576.    
   770 3029-48-336     48    336.0       2649.    
   771 3029-56-26      56    26.00       2651.    
   772 3029-66-33      66    33.00       2616.    
   773 3008-48-336     48    336.0       2686.    
   774 3008-56-26      56    26.00       2693.    
   775 2963-1-107       1    107.0       1799.    
 Observation within a steady-state time step has been moved to the end of the time step.
   776 2948-17-4       17    4.000       1766.    
   777 2982-48-348     48    348.0       1665.    
   778 2982-55-354     55    354.0       1675.    
   779 2982-61-7       61    7.000       1679.    
   780 2982-66-55      66    55.00       1695.    
   781 2982-71-355     71    355.0       1716.    
   782 2968-71-365     71    365.0       1752.    
   783 2951-42-351     42    351.0       1676.    
   784 2951-48-348     48    348.0       1682.    
   785 2951-55-354     55    354.0       1690.    
   786 2951-61-5       61    5.000       1696.    
   787 2951-66-20      66    20.00       1714.    
   788 2951-71-355     71    355.0       1736.    
   789 2950-12-335     12    335.0       1795.    
   790 2950-55-354     55    354.0       1695.    
   791 2945-1-107       1    107.0       1802.    
 Observation within a steady-state time step has been moved to the end of the time step.
   792 2945-7-3         7    3.000       1799.    
   793 2945-10-320     10    320.0       1798.    
   794 2902-42-351     42    351.0       1680.    
   795 2902-48-348     48    348.0       1690.    
   796 2902-55-354     55    354.0       1697.    
   797 2902-61-5       61    5.000       1703.    
   798 2902-66-20      66    20.00       1715.    
   799 2902-71-355     71    355.0       1732.    
   800 2906-12-332     12    332.0       1816.    
   801 2906-17-4       17    4.000       1787.    
     MULTIPLE LAYERS AND PROPORTIONS :    2, 0.77       3, 0.23
   802 2906-22-34      22    34.00       1763.    
     MULTIPLE LAYERS AND PROPORTIONS :    2, 0.77       3, 0.23
   803 2906-32-85      32    85.00       1709.    
   804 2906-37-33      37    33.00       1693.    
     MULTIPLE LAYERS AND PROPORTIONS :    2, 0.77       3, 0.23
   805 2906-48-365     48    365.0       1698.    
     MULTIPLE LAYERS AND PROPORTIONS :    2, 0.77       3, 0.23
   806 2906-55-354     55    354.0       1704.    
     MULTIPLE LAYERS AND PROPORTIONS :    2, 0.77       3, 0.23
   807 2906-61-5       61    5.000       1712.    
     MULTIPLE LAYERS AND PROPORTIONS :    2, 0.77       3, 0.23
   808 2906-66-20      66    20.00       1724.    
     MULTIPLE LAYERS AND PROPORTIONS :    2, 0.77       3, 0.23
   809 2906-71-365     71    365.0       1744.    
     MULTIPLE LAYERS AND PROPORTIONS :    2, 0.77       3, 0.23
   810 2922-16-313     16    313.0       1748.    
   811 2922-22-34      22    34.00       1736.    
   812 2922-27-13      27    13.00       1727.    
   813 2559-17-6       17    6.000       1766.    
     MULTIPLE LAYERS AND PROPORTIONS :    1, 0.19       2, 0.18       3, 0.63
   814 2559-42-351     42    351.0       1729.    
     MULTIPLE LAYERS AND PROPORTIONS :    2, 0.37       3, 0.63
   815 2559-48-348     48    348.0       1727.    
     MULTIPLE LAYERS AND PROPORTIONS :    2, 0.37       3, 0.63
   816 2559-56-3       56    3.000       1747.    
     MULTIPLE LAYERS AND PROPORTIONS :    2, 0.37       3, 0.63
   817 2559-66-20      66    20.00       1779.    
     MULTIPLE LAYERS AND PROPORTIONS :    1, 0.19       2, 0.18       3, 0.63
   818 2559-71-365     71    365.0       1791.    
     MULTIPLE LAYERS AND PROPORTIONS :    1, 0.19       2, 0.18       3, 0.63
   819 2920-1-109       1    109.0       1851.    
 Observation within a steady-state time step has been moved to the end of the time step.
   820 2901-42-351     42    351.0       1703.    
   821 2901-55-355     55    355.0       1725.    
   822 2901-61-5       61    5.000       1741.    
   823 2901-66-20      66    20.00       1777.    
   824 2901-71-365     71    365.0       1790.    
   825 2905-17-6       17    6.000       1766.    
     MULTIPLE LAYERS AND PROPORTIONS :    1, 0.55       2, 0.45
   826 2905-22-34      22    34.00       1752.    
     MULTIPLE LAYERS AND PROPORTIONS :    1, 0.55       2, 0.45
   827 2905-42-351     42    351.0       1705.    
   828 2905-71-50      71    50.00       1791.    
     MULTIPLE LAYERS AND PROPORTIONS :    1, 0.55       2, 0.45
   829 2905-71-365     71    365.0       1792.    
     MULTIPLE LAYERS AND PROPORTIONS :    1, 0.55       2, 0.45
   830 2907-42-351     42    351.0       1686.    
   831 2907-48-348     48    348.0       1710.    
   832 2907-55-355     55    355.0       1725.    
   833 2907-61-5       61    5.000       1744.    
   834 2907-66-20      66    20.00       1779.    
   835 2907-71-365     71    365.0       1793.    
   836 2900-17-6       17    6.000       1758.    
     MULTIPLE LAYERS AND PROPORTIONS :    1, 0.40       2, 0.60
   837 2900-56-20      56    20.00       1729.    
   838 2900-66-26      66    26.00       1782.    
   839 2874-3-290       3    290.0       1828.    
   840 2838-3-1         3    1.000       1817.    
   841 2809-16-354     16    354.0       1803.    
     MULTIPLE LAYERS AND PROPORTIONS :    2, 0.14       3, 0.86
   842 2788-1-105       1    105.0       1834.    
 Observation within a steady-state time step has been moved to the end of the time step.
   843 2788-7-3         7    3.000       1834.    
   844 2788-11-311     11    311.0       1833.    
   845 2780-12-173     12    173.0       1827.    
   846 2780-16-354     16    354.0       1802.    
   847 2780-37-33      37    33.00       1689.    
   848 2779-16-354     16    354.0       1809.    
     MULTIPLE LAYERS AND PROPORTIONS :    2, 0.37       3, 0.63
   849 2779-22-34      22    34.00       1782.    
     MULTIPLE LAYERS AND PROPORTIONS :    2, 0.37       3, 0.63
   850 2777-16-354     16    354.0       1824.    
   851 2787-16-335     16    335.0       1815.    
     MULTIPLE LAYERS AND PROPORTIONS :    1, 0.66       2, 0.34
   852 2787-22-34      22    34.00       1802.    
   853 2787-34-351     34    351.0       1762.    
   854 2787-56-25      56    25.00       1747.    
   855 2787-61-52      61    52.00       1751.    
   856 2787-66-25      66    25.00       1760.    
   857 2783-17-6       17    6.000       1822.    
     MULTIPLE LAYERS AND PROPORTIONS :    1, 0.41       2, 0.59
   858 2783-56-25      56    25.00       1749.    
   859 2783-66-20      66    20.00       1780.    
     MULTIPLE LAYERS AND PROPORTIONS :    1, 0.41       2, 0.59
   860 2783-71-365     71    365.0       1781.    
     MULTIPLE LAYERS AND PROPORTIONS :    1, 0.41       2, 0.59
   861 2790-66-20      66    20.00       1764.    
     MULTIPLE LAYERS AND PROPORTIONS :    2, 0.52       3, 0.48
   862 2790-71-365     71    365.0       1774.    
     MULTIPLE LAYERS AND PROPORTIONS :    2, 0.52       3, 0.48
   863 2745-16-354     16    354.0       1825.    
     MULTIPLE LAYERS AND PROPORTIONS :    1, 0.42       2, 0.58
   864 2745-66-20      66    20.00       1767.    
     MULTIPLE LAYERS AND PROPORTIONS :    1, 0.42       2, 0.58
   865 2745-71-365     71    365.0       1771.    
     MULTIPLE LAYERS AND PROPORTIONS :    1, 0.42       2, 0.58
   866 2775-1-86        1    86.00       1838.    
 Observation within a steady-state time step has been moved to the end of the time step.
   867 2775-7-68        7    68.00       1836.    
   868 2731-48-348     48    348.0       1740.    
     MULTIPLE LAYERS AND PROPORTIONS :    2, 0.87       3, 0.13
   869 2731-55-354     55    354.0       1732.    
     MULTIPLE LAYERS AND PROPORTIONS :    2, 0.87       3, 0.13
   870 2731-61-5       61    5.000       1751.    
     MULTIPLE LAYERS AND PROPORTIONS :    2, 0.87       3, 0.13
   871 2731-66-20      66    20.00       1763.    
     MULTIPLE LAYERS AND PROPORTIONS :    2, 0.87       3, 0.13
   872 2731-71-365     71    365.0       1772.    
     MULTIPLE LAYERS AND PROPORTIONS :    2, 0.87       3, 0.13
   873 2771-22-21      22    21.00       1796.    
   874 2718-17-6       17    6.000       1829.    
     MULTIPLE LAYERS AND PROPORTIONS :    2, 0.69       3, 0.31
   875 2718-27-13      27    13.00       1784.    
     MULTIPLE LAYERS AND PROPORTIONS :    2, 0.69       3, 0.31
   876 2769-56-26      56    26.00       1705.    
   877 2769-61-55      61    55.00       1708.    
   878 2769-66-26      66    26.00       1715.    
   879 2758-7-344       7    344.0       1835.    
   880 2675-48-348     48    348.0       1693.    
   881 2675-61-4       61    4.000       1704.    
   882 2675-66-20      66    20.00       1711.    
   883 2675-71-365     71    365.0       1726.    
   884 2637-42-351     42    351.0       1723.    
   885 2637-48-349     48    349.0       1721.    
   886 2637-55-355     55    355.0       1721.    
   887 2637-61-4       61    4.000       1722.    
   888 2637-66-51      66    51.00       1728.    
   889 2637-71-365     71    365.0       1741.    
   890 2641-16-355     16    355.0       1822.    
     MULTIPLE LAYERS AND PROPORTIONS :    2, 0.07       3, 0.93
   891 2641-56-25      56    25.00       1716.    
     MULTIPLE LAYERS AND PROPORTIONS :    2, 0.07       3, 0.93
   892 2641-61-53      61    53.00       1720.    
     MULTIPLE LAYERS AND PROPORTIONS :    2, 0.07       3, 0.93
   893 2641-66-26      66    26.00       1717.    
     MULTIPLE LAYERS AND PROPORTIONS :    2, 0.07       3, 0.93
   894 2640-42-351     42    351.0       1705.    
   895 2640-48-348     48    348.0       1712.    
   896 2640-55-355     55    355.0       1717.    
   897 2640-61-4       61    4.000       1721.    
   898 2640-66-20      66    20.00       1732.    
   899 2640-71-4       71    4.000       1743.    
   900 2640-71-365     71    365.0       1745.    
   901 2636-42-351     42    351.0       1705.    
   902 2636-48-348     48    348.0       1710.    
   903 2636-55-355     55    355.0       1704.    
   904 2636-61-4       61    4.000       1718.    
   905 2636-66-20      66    20.00       1727.    
   906 2636-71-5       71    5.000       1738.    
   907 2636-71-365     71    365.0       1741.    
   908 2639-12-178     12    178.0       1856.    
     MULTIPLE LAYERS AND PROPORTIONS :    2, 0.39       3, 0.61
   909 2639-16-354     16    354.0       1839.    
     MULTIPLE LAYERS AND PROPORTIONS :    2, 0.39       3, 0.61
   910 2639-42-351     42    351.0       1715.    
     MULTIPLE LAYERS AND PROPORTIONS :    2, 0.39       3, 0.61
   911 2639-48-348     48    348.0       1725.    
     MULTIPLE LAYERS AND PROPORTIONS :    2, 0.39       3, 0.61
   912 2639-71-50      71    50.00       1753.    
     MULTIPLE LAYERS AND PROPORTIONS :    2, 0.39       3, 0.61
   913 2639-71-365     71    365.0       1754.    
     MULTIPLE LAYERS AND PROPORTIONS :    2, 0.39       3, 0.61
   914 2654-56-25      56    25.00       1734.    
   915 2654-61-52      61    52.00       1736.    
   916 2978-1-364       1    364.0       1871.    
 Observation within a steady-state time step has been moved to the end of the time step.
   917 2978-4-93        4    93.00       1868.    
   918 2964-48-300     48    300.0       1788.    
   919 2964-55-321     55    321.0       1815.    
   920 2964-60-313     60    313.0       1823.    
   921 2964-65-364     65    364.0       1827.    
   922 2964-71-349     71    349.0       1835.    
   923 2965-71-350     71    350.0       1956.    
   924 2985-17-5       17    5.000       1729.    
   925 2985-56-24      56    24.00       1725.    
   926 2985-61-56      61    56.00       1753.    
   927 2985-66-18      66    18.00       1803.    
   928 2913-56-23      56    23.00       1741.    
   929 2921-1-86        1    86.00       1806.    
 Observation within a steady-state time step has been moved to the end of the time step.
   930 2921-7-3         7    3.000       1801.    
   931 2921-10-320     10    320.0       1794.    
   932 2921-12-361     12    361.0       1787.    
   933 2938-56-26      56    26.00       1732.    
   934 2938-61-59      61    59.00       1755.    
   935 2938-66-20      66    20.00       1805.    
   936 2935-22-34      22    34.00       1724.    
   937 2935-27-20      27    20.00       1702.    
   938 2935-56-24      56    24.00       1723.    
   939 2935-61-56      61    56.00       1746.    
   940 2935-66-19      66    19.00       1797.    
   941 2943-48-275     48    275.0       1710.    
   942 2944-48-275     48    275.0       1707.    
   943 2936-56-24      56    24.00       1826.    
     MULTIPLE LAYERS AND PROPORTIONS :    2, 0.32       3, 0.68
   944 2936-61-55      61    55.00       1834.    
     MULTIPLE LAYERS AND PROPORTIONS :    2, 0.32       3, 0.68
   945 2937-17-5       17    5.000       1815.    
     MULTIPLE LAYERS AND PROPORTIONS :    2, 0.86       3, 0.14
   946 2937-22-34      22    34.00       1798.    
     MULTIPLE LAYERS AND PROPORTIONS :    2, 0.86       3, 0.14
   947 2937-32-85      32    85.00       1767.    
     MULTIPLE LAYERS AND PROPORTIONS :    2, 0.86       3, 0.14
   948 2937-42-349     42    349.0       1749.    
     MULTIPLE LAYERS AND PROPORTIONS :    2, 0.86       3, 0.14
   949 2937-48-341     48    341.0       1779.    
     MULTIPLE LAYERS AND PROPORTIONS :    2, 0.86       3, 0.14
   950 2937-56-24      56    24.00       1805.    
     MULTIPLE LAYERS AND PROPORTIONS :    2, 0.86       3, 0.14
   951 2937-65-302     65    302.0       1818.    
     MULTIPLE LAYERS AND PROPORTIONS :    2, 0.86       3, 0.14
   952 2915-12-6       12    6.000       1856.    
     MULTIPLE LAYERS AND PROPORTIONS :    2, 0.74       3, 0.26
   953 2915-17-5       17    5.000       1829.    
     MULTIPLE LAYERS AND PROPORTIONS :    2, 0.74       3, 0.26
   954 2915-56-24      56    24.00       1818.    
     MULTIPLE LAYERS AND PROPORTIONS :    2, 0.74       3, 0.26
   955 2915-61-56      61    56.00       1828.    
     MULTIPLE LAYERS AND PROPORTIONS :    2, 0.74       3, 0.26
   956 2915-66-19      66    19.00       1834.    
     MULTIPLE LAYERS AND PROPORTIONS :    2, 0.74       3, 0.26
   957 2863-48-275     48    275.0       1773.    
   958 2864-48-275     48    275.0       1775.    
   959 2885-17-5       17    5.000       1811.    
   960 2885-56-24      56    24.00       1794.    
   961 2885-61-56      61    56.00       1810.    
   962 2867-17-6       17    6.000       1763.    
   963 2867-21-335     21    335.0       1730.    
   964 2867-56-24      56    24.00       1732.    
   965 2867-61-56      61    56.00       1751.    
   966 2867-66-19      66    19.00       1792.    
   967 2887-56-24      56    24.00       1732.    
     MULTIPLE LAYERS AND PROPORTIONS :    2, 0.86       3, 0.14
   968 2887-66-19      66    19.00       1779.    
     MULTIPLE LAYERS AND PROPORTIONS :    2, 0.86       3, 0.14
   969 2886-17-6       17    6.000       1759.    
   970 2886-56-24      56    24.00       1727.    
   971 2886-61-56      61    56.00       1748.    
   972 2886-66-27      66    27.00       1789.    
   973 2850-1-86        1    86.00       1825.    
 Observation within a steady-state time step has been moved to the end of the time step.
   974 2850-7-4         7    4.000       1820.    
   975 2850-12-361     12    361.0       1812.    
   976 2837-12-284     12    284.0       1798.    
     MULTIPLE LAYERS AND PROPORTIONS :    1, 0.18       2, 0.82
   977 2837-16-354     16    354.0       1759.    
   978 2837-22-34      22    34.00       1730.    
   979 2837-32-85      32    85.00       1685.    
   980 2837-37-34      37    34.00       1676.    
   981 2837-42-349     42    349.0       1690.    
   982 2837-48-341     48    341.0       1709.    
   983 2837-56-24      56    24.00       1730.    
   984 2837-60-319     60    319.0       1750.    
   985 2837-65-298     65    298.0       1789.    
     MULTIPLE LAYERS AND PROPORTIONS :    1, 0.18       2, 0.82
   986 2837-71-11      71    11.00       1802.    
     MULTIPLE LAYERS AND PROPORTIONS :    1, 0.18       2, 0.82
   987 2837-71-365     71    365.0       1807.    
     MULTIPLE LAYERS AND PROPORTIONS :    1, 0.18       2, 0.82
   988 2818-17-6       17    6.000       1760.    
   989 2818-56-24      56    24.00       1738.    
   990 2818-61-52      61    52.00       1757.    
   991 2818-66-25      66    25.00       1793.    
   992 2800-48-348     48    348.0       1708.    
   993 2800-55-355     55    355.0       1729.    
   994 2800-61-7       61    7.000       1747.    
   995 2800-65-341     65    341.0       1780.    
   996 2800-71-50      71    50.00       1796.    
   997 2800-71-365     71    365.0       1797.    
   998 2786-56-24      56    24.00       1730.    
   999 2786-61-52      61    52.00       1745.    
  1000 2786-66-25      66    25.00       1781.    
  1001 2770-1-86        1    86.00       1835.    
 Observation within a steady-state time step has been moved to the end of the time step.
  1002 2770-7-4         7    4.000       1831.    
  1003 2770-12-361     12    361.0       1826.    
  1004 2744-56-24      56    24.00       1736.    
  1005 2740-56-24      56    24.00       1735.    
  1006 2741-17-6       17    6.000       1783.    
  1007 2694-1-86        1    86.00       1871.    
 Observation within a steady-state time step has been moved to the end of the time step.
  1008 2694-5-67        5    67.00       1870.    
  1009 2643-2-60        2    60.00       1888.    
  1010 2643-6-284       6    284.0       1886.    
  1011 2643-11-275     11    275.0       1876.    
  1012 2933-56-23      56    23.00       1728.    
  1013 2851-16-354     16    354.0       1770.    
  1014 2851-65-341     65    341.0       1790.    
  1015 2851-71-50      71    50.00       1799.    
  1016 2851-71-365     71    365.0       1799.    
  1017 2854-65-341     65    341.0       1784.    
  1018 2854-71-50      71    50.00       1797.    
  1019 2854-71-365     71    365.0       1798.    
  1020 2796-61-52      61    52.00       1752.    
  1021 2796-66-33      66    33.00       1772.    
  1022 2712-42-351     42    351.0       1745.    
  1023 2712-48-348     48    348.0       1750.    
  1024 2712-56-27      56    27.00       1756.    
  1025 2712-61-7       61    7.000       1758.    
  1026 2712-66-55      66    55.00       1770.    
  1027 2712-71-365     71    365.0       1778.    
  1028 2709-55-355     55    355.0       1767.    
  1029 2709-61-7       61    7.000       1781.    
  1030 2709-65-341     65    341.0       1781.    
  1031 2709-71-365     71    365.0       1785.    
  1032 2702-42-351     42    351.0       1782.    
  1033 2702-48-348     48    348.0       1773.    
  1034 2702-56-27      56    27.00       1770.    
  1035 2702-61-7       61    7.000       1770.    
  1036 2702-65-341     65    341.0       1777.    
  1037 2702-71-365     71    365.0       1790.    
  1038 2711-39-335     39    335.0       1752.    
  1039 2711-56-26      56    26.00       1755.    
  1040 2711-61-7       61    7.000       1757.    
  1041 2711-65-341     65    341.0       1768.    
  1042 2711-71-365     71    365.0       1779.    
  1043 2713-42-351     42    351.0       1746.    
  1044 2713-56-26      56    26.00       1755.    
  1045 2713-61-7       61    7.000       1756.    
  1046 2713-65-341     65    341.0       1770.    
  1047 2713-71-365     71    365.0       1780.    
  1048 2682-56-23      56    23.00       1758.    
  1049 2682-61-53      61    53.00       1756.    
  1050 2682-66-28      66    28.00       1763.    
  1051 2866-12-332     12    332.0       1810.    
  1052 2866-17-6       17    6.000       1764.    
  1053 2998-43-6       43    6.000       2076.    
  1054 3416-56-26      56    26.00       1932.    
  1055 3416-61-55      61    55.00       1926.    
  1056 3416-66-19      66    19.00       1911.    
  1057 2986-8-305       8    305.0       1907.    
  1058 2960-1-365       1    365.0       1941.    
 Observation within a steady-state time step has been moved to the end of the time step.
  1059 2961-56-25      56    25.00       1958.    
     MULTIPLE LAYERS AND PROPORTIONS :    1, 0.29       2, 0.71
  1060 2961-61-59      61    59.00       1947.    
     MULTIPLE LAYERS AND PROPORTIONS :    1, 0.29       2, 0.71
  1061 2961-66-19      66    19.00       1917.    
     MULTIPLE LAYERS AND PROPORTIONS :    1, 0.29       2, 0.71
  1062 2957-56-25      56    25.00       1965.    
     MULTIPLE LAYERS AND PROPORTIONS :    1, 0.31       2, 0.69
  1063 2957-61-59      61    59.00       1978.    
     MULTIPLE LAYERS AND PROPORTIONS :    1, 0.31       2, 0.69
  1064 2988-1-51        1    51.00       1886.    
 Observation within a steady-state time step has been moved to the end of the time step.
  1065 2984-8-213       8    213.0       1873.    
  1066 2971-7-60        7    60.00       1916.    
  1067 2969-56-25      56    25.00       1917.    
     MULTIPLE LAYERS AND PROPORTIONS :    1, 0.68       2, 0.32
  1068 2969-61-55      61    55.00       1914.    
     MULTIPLE LAYERS AND PROPORTIONS :    1, 0.68       2, 0.32
  1069 2969-66-19      66    19.00       1855.    
     MULTIPLE LAYERS AND PROPORTIONS :    1, 0.68       2, 0.32
  1070 2976-56-25      56    25.00       1862.    
  1071 2976-61-55      61    55.00       1862.    
  1072 2976-66-19      66    19.00       1846.    
  1073 2972-56-25      56    25.00       1858.    
  1074 2972-66-19      66    19.00       1844.    
  1075 2919-21-335     21    335.0       1807.    
  1076 2946-56-25      56    25.00       1956.    
     MULTIPLE LAYERS AND PROPORTIONS :    2, 0.81       3, 0.19
  1077 2946-66-19      66    19.00       1917.    
     MULTIPLE LAYERS AND PROPORTIONS :    2, 0.81       3, 0.19
  1078 2927-22-17      22    17.00       1953.    
     MULTIPLE LAYERS AND PROPORTIONS :    2, 0.83       3, 0.17
  1079 2927-27-32      27    32.00       1950.    
     MULTIPLE LAYERS AND PROPORTIONS :    2, 0.83       3, 0.17
  1080 2955-8-276       8    276.0       1884.    
     MULTIPLE LAYERS AND PROPORTIONS :    1, 0.50       2, 0.50
  1081 2955-12-40      12    40.00       1882.    
     MULTIPLE LAYERS AND PROPORTIONS :    1, 0.50       2, 0.50
  1082 2955-17-1       17    1.000       1870.    
     MULTIPLE LAYERS AND PROPORTIONS :    1, 0.50       2, 0.50
  1083 2955-27-32      27    32.00       1849.    
     MULTIPLE LAYERS AND PROPORTIONS :    1, 0.50       2, 0.50
  1084 2955-32-12      32    12.00       1857.    
     MULTIPLE LAYERS AND PROPORTIONS :    1, 0.50       2, 0.50
  1085 2955-37-1       37    1.000       1849.    
     MULTIPLE LAYERS AND PROPORTIONS :    1, 0.50       2, 0.50
  1086 2926-56-26      56    26.00       1971.    
  1087 2926-61-59      61    59.00       1956.    
  1088 2942-1-365       1    365.0       1980.    
 Observation within a steady-state time step has been moved to the end of the time step.
  1089 2916-56-25      56    25.00       1981.    
  1090 2916-61-59      61    59.00       1963.    
  1091 2916-66-20      66    20.00       1933.    
  1092 2941-42-364     42    364.0       2010.    
  1093 2941-48-335     48    335.0       2013.    
  1094 2941-56-23      56    23.00       2015.    
  1095 2941-61-59      61    59.00       2009.    
  1096 2941-66-26      66    26.00       2003.    
  1097 2941-71-54      71    54.00       1985.    
  1098 3185-34-152     34    152.0       2050.    
  1099 2925-42-364     42    364.0       2042.    
  1100 2925-48-335     48    335.0       2045.    
  1101 2925-56-23      56    23.00       2044.    
  1102 2925-66-26      66    26.00       2024.    
  1103 2925-71-54      71    54.00       2018.    
  1104 2954-42-363     42    363.0       2095.    
  1105 2954-56-23      56    23.00       2088.    
  1106 2954-61-59      61    59.00       2078.    
  1107 2954-66-27      66    27.00       2077.    
  1108 2889-42-364     42    364.0       2041.    
  1109 2889-48-336     48    336.0       2056.    
  1110 2889-56-24      56    24.00       2053.    
  1111 2880-22-18      22    18.00       2092.    
  1112 2880-27-32      27    32.00       2088.    
  1113 2880-38-1       38    1.000       2076.    
  1114 2880-42-363     42    363.0       2076.    
  1115 2893-1-274       1    274.0       2091.    
 Observation within a steady-state time step has been moved to the end of the time step.
  1116 2893-4-279       4    279.0       2087.    
  1117 2893-5-285       5    285.0       2084.    
  1118 2893-12-46      12    46.00       2075.    
  1119 2893-17-19      17    19.00       2069.    
  1120 2893-22-1       22    1.000       2063.    
  1121 2893-27-32      27    32.00       2062.    
  1122 2893-32-14      32    14.00       2062.    
  1123 2893-38-1       38    1.000       2055.    
  1124 2896-42-363     42    363.0       2024.    
  1125 2853-42-364     42    364.0       2049.    
  1126 2853-48-336     48    336.0       2053.    
  1127 2853-56-24      56    24.00       2052.    
  1128 2853-61-59      61    59.00       2043.    
  1129 2853-66-27      66    27.00       2025.    
  1130 2853-71-55      71    55.00       2016.    
  1131 2858-42-363     42    363.0       1992.    
  1132 2858-48-336     48    336.0       2008.    
  1133 2858-56-24      56    24.00       2017.    
  1134 2858-61-59      61    59.00       2004.    
  1135 2858-66-27      66    27.00       1969.    
  1136 2858-71-62      71    62.00       1974.    
  1137 2904-2-1         2    1.000       2009.    
     MULTIPLE LAYERS AND PROPORTIONS :    1, 0.70       2, 0.30
  1138 2892-1-360       1    360.0       2007.    
 Observation within a steady-state time step has been moved to the end of the time step.
     MULTIPLE LAYERS AND PROPORTIONS :    1, 0.59       2, 0.41
  1139 2892-7-65        7    65.00       1995.    
     MULTIPLE LAYERS AND PROPORTIONS :    1, 0.59       2, 0.41
  1140 2892-11-334     11    334.0       1988.    
     MULTIPLE LAYERS AND PROPORTIONS :    1, 0.59       2, 0.41
  1141 2892-16-318     16    318.0       1984.    
     MULTIPLE LAYERS AND PROPORTIONS :    1, 0.59       2, 0.41
  1142 2892-22-34      22    34.00       1982.    
     MULTIPLE LAYERS AND PROPORTIONS :    1, 0.59       2, 0.41
  1143 2892-27-32      27    32.00       1986.    
     MULTIPLE LAYERS AND PROPORTIONS :    1, 0.59       2, 0.41
  1144 2892-31-351     31    351.0       1982.    
     MULTIPLE LAYERS AND PROPORTIONS :    1, 0.59       2, 0.41
  1145 2892-36-50      36    50.00       1996.    
     MULTIPLE LAYERS AND PROPORTIONS :    1, 0.59       2, 0.41
  1146 2909-56-25      56    25.00       1986.    
     MULTIPLE LAYERS AND PROPORTIONS :    1, 0.61       2, 0.39
  1147 2909-61-59      61    59.00       1960.    
     MULTIPLE LAYERS AND PROPORTIONS :    1, 0.61       2, 0.39
  1148 2909-66-19      66    19.00       1938.    
     MULTIPLE LAYERS AND PROPORTIONS :    1, 0.61       2, 0.39
  1149 2911-56-25      56    25.00       1984.    
     MULTIPLE LAYERS AND PROPORTIONS :    1, 0.75       2, 0.25
  1150 2911-61-59      61    59.00       1964.    
     MULTIPLE LAYERS AND PROPORTIONS :    1, 0.75       2, 0.25
  1151 2911-66-19      66    19.00       1937.    
     MULTIPLE LAYERS AND PROPORTIONS :    1, 0.75       2, 0.25
  1152 2884-66-32      66    32.00       1943.    
  1153 2865-8-91        8    91.00       1980.    
  1154 2865-48-342     48    342.0       1982.    
  1155 2848-66-32      66    32.00       1961.    
     MULTIPLE LAYERS AND PROPORTIONS :    1, 0.92       2, 0.08
  1156 2881-48-342     48    342.0       1981.    
  1157 2859-8-121       8    121.0       1997.    
  1158 2871-56-24      56    24.00       1811.    
  1159 2871-61-59      61    59.00       1816.    
  1160 2871-66-27      66    27.00       1823.    
  1161 2811-17-6       17    6.000       1836.    
  1162 2811-22-34      22    34.00       1823.    
  1163 2811-56-24      56    24.00       1832.    
  1164 2811-61-59      61    59.00       1835.    
  1165 2834-48-342     48    342.0       1994.    
  1166 2835-48-342     48    342.0       1994.    
  1167 2835-56-24      56    24.00       2006.    
  1168 2849-42-363     42    363.0       1982.    
  1169 2849-48-336     48    336.0       2003.    
  1170 2828-55-343     55    343.0       2013.    
  1171 2828-61-38      61    38.00       2000.    
  1172 2828-66-55      66    55.00       1961.    
  1173 2828-71-365     71    365.0       1963.    
  1174 2846-8-32        8    32.00       2008.    
     MULTIPLE LAYERS AND PROPORTIONS :    1, 0.44       2, 0.44       3, 0.12
  1175 2847-56-24      56    24.00       2005.    
     MULTIPLE LAYERS AND PROPORTIONS :    1, 0.23       2, 0.40       3, 0.37
  1176 2833-1-283       1    283.0       2018.    
 Observation within a steady-state time step has been moved to the end of the time step.
  1177 2821-43-27      43    27.00       1983.    
     MULTIPLE LAYERS AND PROPORTIONS :    1, 0.56       2, 0.44
  1178 2821-48-334     48    334.0       1999.    
     MULTIPLE LAYERS AND PROPORTIONS :    1, 0.56       2, 0.44
  1179 2821-56-23      56    23.00       2011.    
     MULTIPLE LAYERS AND PROPORTIONS :    1, 0.56       2, 0.44
  1180 2821-61-54      61    54.00       1994.    
     MULTIPLE LAYERS AND PROPORTIONS :    1, 0.56       2, 0.44
  1181 2821-66-13      66    13.00       1953.    
     MULTIPLE LAYERS AND PROPORTIONS :    1, 0.56       2, 0.44
  1182 2817-1-364       1    364.0       2034.    
 Observation within a steady-state time step has been moved to the end of the time step.
  1183 2805-48-334     48    334.0       2001.    
     MULTIPLE LAYERS AND PROPORTIONS :    2, 0.72       3, 0.28
  1184 2805-56-23      56    23.00       2012.    
     MULTIPLE LAYERS AND PROPORTIONS :    2, 0.72       3, 0.28
  1185 2805-61-53      61    53.00       1994.    
     MULTIPLE LAYERS AND PROPORTIONS :    2, 0.72       3, 0.28
  1186 2805-66-20      66    20.00       1954.    
     MULTIPLE LAYERS AND PROPORTIONS :    2, 0.72       3, 0.28
  1187 2798-8-32        8    32.00       2025.    
     MULTIPLE LAYERS AND PROPORTIONS :    1, 0.81       2, 0.19
  1188 2792-48-334     48    334.0       2008.    
  1189 2792-56-23      56    23.00       2019.    
  1190 2792-61-53      61    53.00       2001.    
  1191 2792-66-20      66    20.00       1972.    
  1192 2820-3-338       3    338.0       2046.    
  1193 2820-6-224       6    224.0       2047.    
  1194 2820-7-11        7    11.00       2038.    
  1195 2820-12-46      12    46.00       2037.    
  1196 2820-17-19      17    19.00       2033.    
  1197 2820-22-17      22    17.00       2029.    
  1198 2820-27-32      27    32.00       2035.    
  1199 2820-31-351     31    351.0       2032.    
  1200 2820-37-28      37    28.00       2030.    
  1201 2820-48-334     48    334.0       2020.    
  1202 2820-56-23      56    23.00       2034.    
  1203 2820-60-319     60    319.0       2016.    
  1204 2820-65-299     65    299.0       1978.    
  1205 2820-71-365     71    365.0       1985.    
  1206 2802-48-334     48    334.0       2023.    
  1207 2802-56-23      56    23.00       2039.    
  1208 2802-61-53      61    53.00       2020.    
  1209 2802-66-20      66    20.00       2007.    
  1210 2795-17-19      17    19.00       2040.    
  1211 2795-22-17      22    17.00       2037.    
  1212 2795-32-13      32    13.00       2041.    
  1213 2795-37-345     37    345.0       2028.    
  1214 2795-49-5       49    5.000       2031.    
  1215 2795-55-343     55    343.0       2037.    
  1216 2795-71-365     71    365.0       1992.    
  1217 2722-61-53      61    53.00       2062.    
     MULTIPLE LAYERS AND PROPORTIONS :    1, 0.32       2, 0.68
  1218 2723-61-53      61    53.00       2064.    
  1219 2723-66-20      66    20.00       2037.    
  1220 2715-48-335     48    335.0       2064.    
  1221 2715-56-23      56    23.00       2077.    
  1222 2715-61-53      61    53.00       2059.    
  1223 2715-66-20      66    20.00       2034.    
  1224 2754-1-365       1    365.0       2084.    
 Observation within a steady-state time step has been moved to the end of the time step.
  1225 2764-48-334     48    334.0       2045.    
     MULTIPLE LAYERS AND PROPORTIONS :    1, 0.38       2, 0.62
  1226 2764-56-23      56    23.00       2057.    
     MULTIPLE LAYERS AND PROPORTIONS :    1, 0.38       2, 0.62
  1227 2764-61-53      61    53.00       2040.    
     MULTIPLE LAYERS AND PROPORTIONS :    1, 0.38       2, 0.62
  1228 2764-66-20      66    20.00       2012.    
     MULTIPLE LAYERS AND PROPORTIONS :    1, 0.38       2, 0.62
  1229 2732-48-335     48    335.0       2047.    
  1230 2732-56-20      56    20.00       2062.    
  1231 2739-1-360       1    360.0       2087.    
 Observation within a steady-state time step has been moved to the end of the time step.
  1232 2736-8-32        8    32.00       2077.    
     MULTIPLE LAYERS AND PROPORTIONS :    1, 0.45       2, 0.55
  1233 2724-48-334     48    334.0       2054.    
     MULTIPLE LAYERS AND PROPORTIONS :    1, 0.47       2, 0.53
  1234 2724-56-23      56    23.00       2067.    
     MULTIPLE LAYERS AND PROPORTIONS :    1, 0.47       2, 0.53
  1235 2724-61-53      61    53.00       2053.    
     MULTIPLE LAYERS AND PROPORTIONS :    1, 0.47       2, 0.53
  1236 2724-66-20      66    20.00       2027.    
     MULTIPLE LAYERS AND PROPORTIONS :    1, 0.47       2, 0.53
  1237 2737-42-363     42    363.0       2008.    
     MULTIPLE LAYERS AND PROPORTIONS :    1, 0.54       2, 0.46
  1238 2717-2-1         2    1.000       2069.    
  1239 2716-8-32        8    32.00       2057.    
  1240 2727-11-121     11    121.0       2014.    
  1241 2789-12-271     12    271.0       1861.    
  1242 2696-1-364       1    364.0       2056.    
 Observation within a steady-state time step has been moved to the end of the time step.
  1243 2696-6-341       6    341.0       2041.    
  1244 2696-11-334     11    334.0       2035.    
  1245 2696-16-313     16    313.0       2031.    
  1246 2696-22-34      22    34.00       2031.    
  1247 2708-48-337     48    337.0       1999.    
  1248 2708-56-19      56    19.00       1995.    
  1249 2708-66-28      66    28.00       1983.    
  1250 2701-32-43      32    43.00       2047.    
     MULTIPLE LAYERS AND PROPORTIONS :    1, 0.37       2, 0.41       3, 0.22
  1251 2701-42-363     42    363.0       2029.    
     MULTIPLE LAYERS AND PROPORTIONS :    1, 0.37       2, 0.41       3, 0.22
  1252 2701-56-19      56    19.00       2055.    
     MULTIPLE LAYERS AND PROPORTIONS :    1, 0.37       2, 0.41       3, 0.22
  1253 2668-42-363     42    363.0       2099.    
  1254 2668-56-19      56    19.00       2095.    
  1255 2668-61-52      61    52.00       2091.    
  1256 2668-66-35      66    35.00       2087.    
  1257 2681-8-32        8    32.00       2095.    
  1258 2678-48-335     48    335.0       2074.    
  1259 2678-56-23      56    23.00       2096.    
  1260 2678-61-54      61    54.00       2071.    
  1261 2678-66-20      66    20.00       2046.    
  1262 2690-66-55      66    55.00       2036.    
  1263 2692-2-1         2    1.000       2090.    
  1264 2676-43-27      43    27.00       2084.    
     MULTIPLE LAYERS AND PROPORTIONS :    1, 0.11       2, 0.89
  1265 2676-48-335     48    335.0       2082.    
     MULTIPLE LAYERS AND PROPORTIONS :    1, 0.11       2, 0.89
  1266 2676-56-23      56    23.00       2090.    
     MULTIPLE LAYERS AND PROPORTIONS :    1, 0.11       2, 0.89
  1267 2676-61-53      61    53.00       2073.    
     MULTIPLE LAYERS AND PROPORTIONS :    1, 0.11       2, 0.89
  1268 2676-66-13      66    13.00       2057.    
     MULTIPLE LAYERS AND PROPORTIONS :    1, 0.11       2, 0.89
  1269 2705-48-335     48    335.0       2072.    
  1270 2705-56-23      56    23.00       2084.    
  1271 2705-61-54      61    54.00       2067.    
  1272 2705-66-18      66    18.00       2041.    
  1273 2707-43-27      43    27.00       2068.    
     MULTIPLE LAYERS AND PROPORTIONS :    1, 0.31       2, 0.69
  1274 2707-48-335     48    335.0       2067.    
     MULTIPLE LAYERS AND PROPORTIONS :    1, 0.31       2, 0.69
  1275 2707-56-23      56    23.00       2080.    
     MULTIPLE LAYERS AND PROPORTIONS :    1, 0.31       2, 0.69
  1276 2707-61-53      61    53.00       2062.    
     MULTIPLE LAYERS AND PROPORTIONS :    1, 0.31       2, 0.69
  1277 2707-66-20      66    20.00       2036.    
     MULTIPLE LAYERS AND PROPORTIONS :    1, 0.31       2, 0.69
  1278 2689-48-335     48    335.0       2068.    
  1279 2689-56-20      56    20.00       2084.    
  1280 2656-43-27      43    27.00       2089.    
  1281 2656-48-334     48    334.0       2086.    
  1282 2656-56-23      56    23.00       2110.    
  1283 2656-61-53      61    53.00       2083.    
  1284 2656-66-20      66    20.00       2058.    
  1285 2674-33-76      33    76.00       2097.    
  1286 2973-56-19      56    19.00       2361.    
     MULTIPLE LAYERS AND PROPORTIONS :    2, 0.52       3, 0.48
  1287 2973-66-32      66    32.00       2345.    
     MULTIPLE LAYERS AND PROPORTIONS :    2, 0.52       3, 0.48
  1288 2973-71-56      71    56.00       2326.    
     MULTIPLE LAYERS AND PROPORTIONS :    2, 0.52       3, 0.48
  1289 2977-38-91      38    91.00       2353.    
     MULTIPLE LAYERS AND PROPORTIONS :    2, 0.89       3, 0.11
  1290 2977-43-6       43    6.000       2361.    
     MULTIPLE LAYERS AND PROPORTIONS :    2, 0.89       3, 0.11
  1291 2977-48-335     48    335.0       2303.    
     MULTIPLE LAYERS AND PROPORTIONS :    2, 0.89       3, 0.11
  1292 2977-66-32      66    32.00       2340.    
     MULTIPLE LAYERS AND PROPORTIONS :    2, 0.89       3, 0.11
  1293 2991-42-362     42    362.0       2218.    
  1294 2991-48-334     48    334.0       2217.    
  1295 2991-56-27      56    27.00       2215.    
  1296 2991-61-59      61    59.00       2212.    
  1297 2991-66-25      66    25.00       2208.    
  1298 2991-71-57      71    57.00       2201.    
  1299 2966-42-362     42    362.0       2195.    
     MULTIPLE LAYERS AND PROPORTIONS :    2, 0.28       3, 0.72
  1300 2932-42-362     42    362.0       2079.    
  1301 2932-48-336     48    336.0       2078.    
  1302 2932-56-24      56    24.00       2073.    
  1303 2914-42-357     42    357.0       2126.    
  1304 2914-48-365     48    365.0       2119.    
  1305 2914-55-342     55    342.0       2106.    
  1306 2914-61-38      61    38.00       2100.    
  1307 2914-66-40      66    40.00       2091.    
  1308 2914-71-335     71    335.0       2076.    
  1309 2940-55-342     55    342.0       2119.    
  1310 2917-42-365     42    365.0       2135.    
  1311 2917-48-336     48    336.0       2132.    
  1312 2917-56-26      56    26.00       2119.    
  1313 2917-61-59      61    59.00       2102.    
  1314 2917-66-27      66    27.00       2108.    
  1315 2917-71-55      71    55.00       2097.    
  1316 2924-42-362     42    362.0       2164.    
  1317 2930-36-43      36    43.00       2337.    
  1318 2930-56-27      56    27.00       2345.    
  1319 2930-66-33      66    33.00       2292.    
  1320 2930-71-56      71    56.00       2273.    
  1321 2929-42-357     42    357.0       2414.    
     MULTIPLE LAYERS AND PROPORTIONS :    2, 0.33       3, 0.67
  1322 2929-48-355     48    355.0       2427.    
     MULTIPLE LAYERS AND PROPORTIONS :    2, 0.33       3, 0.67
  1323 2929-55-342     55    342.0       2428.    
     MULTIPLE LAYERS AND PROPORTIONS :    2, 0.33       3, 0.67
  1324 2929-60-362     60    362.0       2395.    
     MULTIPLE LAYERS AND PROPORTIONS :    2, 0.33       3, 0.67
  1325 2929-66-1       66    1.000       2345.    
     MULTIPLE LAYERS AND PROPORTIONS :    2, 0.33       3, 0.67
  1326 2929-71-335     71    335.0       2323.    
     MULTIPLE LAYERS AND PROPORTIONS :    2, 0.33       3, 0.67
  1327 2888-43-6       43    6.000       2314.    
     MULTIPLE LAYERS AND PROPORTIONS :    2, 0.37       3, 0.63
  1328 2888-48-334     48    334.0       2312.    
     MULTIPLE LAYERS AND PROPORTIONS :    2, 0.37       3, 0.63
  1329 2888-56-26      56    26.00       2312.    
     MULTIPLE LAYERS AND PROPORTIONS :    2, 0.37       3, 0.63
  1330 2888-66-32      66    32.00       2268.    
     MULTIPLE LAYERS AND PROPORTIONS :    2, 0.37       3, 0.63
  1331 2888-71-56      71    56.00       2248.    
     MULTIPLE LAYERS AND PROPORTIONS :    2, 0.37       3, 0.63
  1332 2856-32-84      32    84.00       2310.    
     MULTIPLE LAYERS AND PROPORTIONS :    2, 0.81       3, 0.19
  1333 2852-43-5       43    5.000       2289.    
     MULTIPLE LAYERS AND PROPORTIONS :    2, 0.96       3, 0.04
  1334 2852-56-19      56    19.00       2286.    
     MULTIPLE LAYERS AND PROPORTIONS :    2, 0.96       3, 0.04
  1335 2852-66-35      66    35.00       2251.    
     MULTIPLE LAYERS AND PROPORTIONS :    2, 0.96       3, 0.04
  1336 2852-71-56      71    56.00       2229.    
     MULTIPLE LAYERS AND PROPORTIONS :    2, 0.96       3, 0.04
  1337 2869-43-8       43    8.000       2322.    
  1338 2869-48-334     48    334.0       2322.    
  1339 2869-56-24      56    24.00       2325.    
  1340 2899-42-362     42    362.0       2169.    
  1341 2899-48-338     48    338.0       2165.    
  1342 2903-33-257     33    257.0       2172.    
     MULTIPLE LAYERS AND PROPORTIONS :    2, 0.86       3, 0.14
  1343 2908-42-357     42    357.0       2149.    
  1344 2908-48-356     48    356.0       2145.    
  1345 2908-55-342     55    342.0       2130.    
  1346 2908-66-26      66    26.00       2118.    
  1347 2908-71-335     71    335.0       2103.    
  1348 2879-55-342     55    342.0       2098.    
  1349 2879-61-40      61    40.00       2094.    
  1350 2879-66-19      66    19.00       2087.    
  1351 2879-71-335     71    335.0       2071.    
  1352 2878-66-26      66    26.00       2111.    
  1353 2878-71-335     71    335.0       2094.    
  1354 2897-1-274       1    274.0       2168.    
 Observation within a steady-state time step has been moved to the end of the time step.
  1355 2897-6-284       6    284.0       2163.    
  1356 2898-11-34      11    34.00       2156.    
  1357 2898-16-361     16    361.0       2147.    
  1358 2898-37-33      37    33.00       2120.    
  1359 2882-43-32      43    32.00       2090.    
  1360 2882-48-365     48    365.0       2088.    
  1361 2882-55-342     55    342.0       2079.    
  1362 2882-61-38      61    38.00       2073.    
  1363 2882-66-40      66    40.00       2061.    
  1364 2882-71-335     71    335.0       2048.    
  1365 2870-33-274     33    274.0       2085.    
  1366 2862-33-135     33    135.0       2110.    
  1367 2824-66-31      66    31.00       2077.    
  1368 2824-71-54      71    54.00       2069.    
  1369 2807-49-5       49    5.000       2134.    
  1370 2807-55-342     55    342.0       2112.    
  1371 2807-71-62      71    62.00       2078.    
  1372 2797-71-62      71    62.00       2081.    
  1373 2845-66-35      66    35.00       2167.    
  1374 2845-71-62      71    62.00       2154.    
  1375 2841-1-274       1    274.0       2225.    
 Observation within a steady-state time step has been moved to the end of the time step.
  1376 2841-6-284       6    284.0       2221.    
  1377 2841-11-34      11    34.00       2216.    
  1378 2841-16-361     16    361.0       2204.    
  1379 2841-38-91      38    91.00       2174.    
  1380 2841-39-91      39    91.00       2173.    
  1381 2841-42-364     42    364.0       2172.    
  1382 2841-48-336     48    336.0       2167.    
  1383 2815-56-24      56    24.00       2141.    
  1384 2801-33-52      33    52.00       2182.    
  1385 2844-43-6       43    6.000       2206.    
  1386 2844-48-334     48    334.0       2200.    
  1387 2844-56-19      56    19.00       2197.    
  1388 2844-66-34      66    34.00       2189.    
  1389 2844-71-61      71    61.00       2232.    
  1390 2819-56-17      56    17.00       2213.    
  1391 2825-56-19      56    19.00       2187.    
  1392 2825-66-35      66    35.00       2215.    
  1393 2794-33-62      33    62.00       2149.    
  1394 2791-42-356     42    356.0       2195.    
  1395 2791-48-337     48    337.0       2171.    
  1396 2791-61-61      61    61.00       2160.    
  1397 2791-66-26      66    26.00       2146.    
  1398 2806-42-356     42    356.0       2222.    
     MULTIPLE LAYERS AND PROPORTIONS :    2, 0.61       3, 0.39
  1399 2806-48-337     48    337.0       2214.    
     MULTIPLE LAYERS AND PROPORTIONS :    2, 0.61       3, 0.39
  1400 2840-43-5       43    5.000       2293.    
  1401 2840-48-334     48    334.0       2294.    
  1402 2840-56-19      56    19.00       2291.    
  1403 2840-61-56      61    56.00       2278.    
  1404 2840-66-32      66    32.00       2257.    
  1405 2827-66-32      66    32.00       2236.    
  1406 2827-71-61      71    61.00       2213.    
  1407 2813-66-26      66    26.00       2210.    
  1408 2813-71-323     71    323.0       2178.    
  1409 2814-42-357     42    357.0       2232.    
     MULTIPLE LAYERS AND PROPORTIONS :    2, 0.62       3, 0.38
  1410 2814-55-342     55    342.0       2222.    
     MULTIPLE LAYERS AND PROPORTIONS :    2, 0.62       3, 0.38
  1411 2814-61-35      61    35.00       2215.    
     MULTIPLE LAYERS AND PROPORTIONS :    2, 0.62       3, 0.38
  1412 2814-66-26      66    26.00       2200.    
     MULTIPLE LAYERS AND PROPORTIONS :    2, 0.62       3, 0.38
  1413 2804-42-357     42    357.0       2231.    
     MULTIPLE LAYERS AND PROPORTIONS :    2, 0.18       3, 0.82
  1414 2804-55-342     55    342.0       2222.    
     MULTIPLE LAYERS AND PROPORTIONS :    2, 0.18       3, 0.82
  1415 2804-61-35      61    35.00       2214.    
     MULTIPLE LAYERS AND PROPORTIONS :    2, 0.18       3, 0.82
  1416 2804-66-26      66    26.00       2199.    
     MULTIPLE LAYERS AND PROPORTIONS :    2, 0.18       3, 0.82
  1417 2812-42-335     42    335.0       2311.    
  1418 2812-48-355     48    355.0       2307.    
  1419 2812-55-342     55    342.0       2303.    
  1420 2812-61-35      61    35.00       2295.    
  1421 2812-71-323     71    323.0       2247.    
  1422 2765-42-357     42    357.0       2207.    
  1423 2765-48-355     48    355.0       2200.    
  1424 2765-55-342     55    342.0       2197.    
  1425 2765-61-35      61    35.00       2192.    
  1426 2765-66-26      66    26.00       2180.    
  1427 2765-71-323     71    323.0       2156.    
  1428 2728-8-69        8    69.00       2235.    
  1429 2719-42-357     42    357.0       2193.    
  1430 2719-48-356     48    356.0       2188.    
  1431 2719-55-343     55    343.0       2181.    
  1432 2726-42-357     42    357.0       2200.    
  1433 2726-48-355     48    355.0       2193.    
  1434 2726-55-342     55    342.0       2190.    
  1435 2726-61-35      61    35.00       2185.    
  1436 2726-66-26      66    26.00       2173.    
  1437 2726-71-323     71    323.0       2151.    
  1438 2784-71-62      71    62.00       2079.    
  1439 2730-56-24      56    24.00       2146.    
  1440 2730-61-54      61    54.00       2138.    
  1441 2730-66-18      66    18.00       2121.    
  1442 2781-16-361     16    361.0       2176.    
  1443 2782-17-7       17    7.000       2174.    
  1444 2782-71-62      71    62.00       2077.    
  1445 2762-48-338     48    338.0       2121.    
  1446 2785-56-23      56    23.00       2118.    
  1447 2785-66-19      66    19.00       2086.    
  1448 2757-56-24      56    24.00       2116.    
  1449 2757-66-19      66    19.00       2086.    
  1450 2763-56-24      56    24.00       2114.    
  1451 2763-66-19      66    19.00       2080.    
  1452 2729-56-24      56    24.00       2122.    
  1453 2729-66-18      66    18.00       2088.    
  1454 2720-16-298     16    298.0       2169.    
  1455 2720-22-31      22    31.00       2162.    
  1456 2706-66-35      66    35.00       2088.    
  1457 2710-56-24      56    24.00       2141.    
  1458 2755-56-23      56    23.00       2094.    
  1459 2755-61-54      61    54.00       2084.    
  1460 2755-66-18      66    18.00       2074.    
  1461 2735-1-365       1    365.0       2237.    
 Observation within a steady-state time step has been moved to the end of the time step.
  1462 2778-33-182     33    182.0       2092.    
  1463 2759-34-121     34    121.0       2105.    
  1464 2738-66-26      66    26.00       2051.    
  1465 2738-71-348     71    348.0       2053.    
  1466 2733-10-280     10    280.0       2107.    
  1467 2733-22-19      22    19.00       2094.    
  1468 2733-42-362     42    362.0       2087.    
  1469 2733-48-362     48    362.0       2085.    
  1470 2733-55-342     55    342.0       2082.    
  1471 2733-61-38      61    38.00       2071.    
  1472 2733-66-40      66    40.00       2050.    
  1473 2733-71-348     71    348.0       2045.    
  1474 2698-49-8       49    8.000       2085.    
  1475 2698-55-342     55    342.0       2092.    
  1476 2698-61-10      61    10.00       2091.    
  1477 2698-71-348     71    348.0       2053.    
  1478 2665-42-362     42    362.0       2093.    
     MULTIPLE LAYERS AND PROPORTIONS :    1, 0.14       2, 0.86
  1479 2665-48-362     48    362.0       2091.    
     MULTIPLE LAYERS AND PROPORTIONS :    1, 0.14       2, 0.86
  1480 2665-55-342     55    342.0       2098.    
     MULTIPLE LAYERS AND PROPORTIONS :    1, 0.14       2, 0.86
  1481 2665-61-4       61    4.000       2086.    
     MULTIPLE LAYERS AND PROPORTIONS :    1, 0.14       2, 0.86
  1482 2665-66-26      66    26.00       2056.    
     MULTIPLE LAYERS AND PROPORTIONS :    1, 0.14       2, 0.86
  1483 2665-71-348     71    348.0       2061.    
     MULTIPLE LAYERS AND PROPORTIONS :    1, 0.14       2, 0.86
  1484 2664-1-360       1    360.0       2134.    
 Observation within a steady-state time step has been moved to the end of the time step.
  1485 2664-6-341       6    341.0       2125.    
  1486 2662-42-362     42    362.0       2094.    
  1487 2662-48-361     48    361.0       2091.    
  1488 2662-55-342     55    342.0       2094.    
  1489 2662-71-348     71    348.0       2057.    
  1490 2659-55-342     55    342.0       2093.    
  1491 2659-61-11      61    11.00       2063.    
  1492 2659-66-26      66    26.00       2057.    
  1493 2659-71-348     71    348.0       2060.    
  1494 2658-1-92        1    92.00       2100.    
 Observation within a steady-state time step has been moved to the end of the time step.
  1495 2742-17-3       17    3.000       2141.    
  1496 2742-22-1       22    1.000       2140.    
  1497 2742-38-91      38    91.00       2123.    
  1498 2742-56-24      56    24.00       2107.    
  1499 2742-61-54      61    54.00       2093.    
  1500 2742-66-31      66    31.00       2068.    
  1501 2742-71-62      71    62.00       2064.    
  1502 2683-42-362     42    362.0       2093.    
  1503 2683-48-362     48    362.0       2090.    
  1504 2683-55-342     55    342.0       2081.    
  1505 2683-61-32      61    32.00       2079.    
  1506 2683-66-40      66    40.00       2053.    
  1507 2686-1-274       1    274.0       2157.    
 Observation within a steady-state time step has been moved to the end of the time step.
  1508 2686-6-283       6    283.0       2150.    
  1509 2686-10-280     10    280.0       2137.    
  1510 2666-1-274       1    274.0       2111.    
 Observation within a steady-state time step has been moved to the end of the time step.
  1511 2666-6-283       6    283.0       2101.    
  1512 2670-17-3       17    3.000       2140.    
  1513 2670-22-31      22    31.00       2138.    
  1514 2670-31-351     31    351.0       2129.    
  1515 2670-36-50      36    50.00       2126.    
  1516 2670-42-352     42    352.0       2116.    
  1517 2670-56-24      56    24.00       2108.    
  1518 2670-61-54      61    54.00       2091.    
  1519 2670-66-33      66    33.00       2063.    
  1520 2670-71-62      71    62.00       2070.    
  1521 2703-36-244     36    244.0       2194.    
  1522 2703-48-355     48    355.0       2189.    
  1523 2703-55-343     55    343.0       2184.    
  1524 2703-61-35      61    35.00       2180.    
  1525 2703-66-19      66    19.00       2178.    
  1526 2703-71-323     71    323.0       2147.    
  1527 2680-71-61      71    61.00       2159.    
  1528 2704-42-335     42    335.0       2188.    
  1529 2704-48-356     48    356.0       2184.    
  1530 2672-42-356     42    356.0       2170.    
  1531 2672-66-33      66    33.00       2154.    
  1532 2672-71-63      71    63.00       2142.    
  1533 2657-42-356     42    356.0       2158.    
  1534 2657-66-33      66    33.00       2152.    
  1535 2685-42-356     42    356.0       2197.    
  1536 2685-48-355     48    355.0       2193.    
  1537 2685-55-343     55    343.0       2186.    
  1538 2685-61-35      61    35.00       2183.    
  1539 2685-66-26      66    26.00       2173.    
  1540 2685-71-323     71    323.0       2154.    
  1541 2983-16-361     16    361.0       2632.    
  1542 2983-22-31      22    31.00       2610.    
  1543 2983-27-11      27    11.00       2618.    
  1544 2980-43-8       43    8.000       2567.    
  1545 2980-48-334     48    334.0       2581.    
  1546 2980-56-24      56    24.00       2581.    
  1547 2990-16-361     16    361.0       2525.    
  1548 2990-48-337     48    337.0       2544.    
  1549 2990-56-24      56    24.00       2562.    
  1550 2956-2-85        2    85.00       2545.    
  1551 2956-6-284       6    284.0       2530.    
  1552 2956-12-261     12    261.0       2511.    
  1553 2956-16-133     16    133.0       2520.    
  1554 2956-26-124     26    124.0       2513.    
  1555 2956-37-34      37    34.00       2520.    
  1556 2956-43-5       43    5.000       2537.    
  1557 2956-48-334     48    334.0       2551.    
  1558 2956-56-27      56    27.00       2553.    
  1559 2956-66-35      66    35.00       2495.    
  1560 2956-71-12      71    12.00       2500.    
  1561 2956-71-365     71    365.0       2513.    
  1562 2931-11-62      11    62.00       2429.    
  1563 2931-16-361     16    361.0       2420.    
  1564 2931-22-31      22    31.00       2415.    
  1565 2635-56-25      56    25.00       1731.    
  1566 2595-16-355     16    355.0       1833.    
  1567 2595-48-349     48    349.0       1721.    
  1568 2595-55-355     55    355.0       1728.    
  1569 2595-61-4       61    4.000       1733.    
  1570 2595-66-47      66    47.00       1743.    
  1571 2595-71-5       71    5.000       1753.    
  1572 2595-71-365     71    365.0       1755.    
  1573 2594-48-350     48    350.0       1725.    
     MULTIPLE LAYERS AND PROPORTIONS :    2, 0.12       3, 0.88
  1574 2594-55-355     55    355.0       1732.    
     MULTIPLE LAYERS AND PROPORTIONS :    2, 0.12       3, 0.88
  1575 2594-66-47      66    47.00       1746.    
     MULTIPLE LAYERS AND PROPORTIONS :    2, 0.12       3, 0.88
  1576 2594-71-5       71    5.000       1757.    
     MULTIPLE LAYERS AND PROPORTIONS :    2, 0.12       3, 0.88
  1577 2594-71-365     71    365.0       1760.    
     MULTIPLE LAYERS AND PROPORTIONS :    2, 0.12       3, 0.88
  1578 2599-66-47      66    47.00       1746.    
  1579 2599-71-5       71    5.000       1756.    
  1580 2599-71-365     71    365.0       1758.    
  1581 2596-42-351     42    351.0       1713.    
     MULTIPLE LAYERS AND PROPORTIONS :    2, 0.12       3, 0.88
  1582 2596-48-349     48    349.0       1721.    
     MULTIPLE LAYERS AND PROPORTIONS :    2, 0.12       3, 0.88
  1583 2596-55-355     55    355.0       1728.    
     MULTIPLE LAYERS AND PROPORTIONS :    2, 0.12       3, 0.88
  1584 2596-61-4       61    4.000       1733.    
     MULTIPLE LAYERS AND PROPORTIONS :    2, 0.12       3, 0.88
  1585 2596-66-34      66    34.00       1742.    
     MULTIPLE LAYERS AND PROPORTIONS :    2, 0.12       3, 0.88
  1586 2596-71-5       71    5.000       1753.    
  1587 2596-71-365     71    365.0       1755.    
  1588 2591-56-3       56    3.000       1728.    
  1589 2591-61-4       61    4.000       1732.    
  1590 2591-66-34      66    34.00       1742.    
  1591 2591-71-5       71    5.000       1753.    
  1592 2591-71-365     71    365.0       1755.    
  1593 2588-42-351     42    351.0       1710.    
  1594 2588-48-349     48    349.0       1715.    
  1595 2588-55-355     55    355.0       1722.    
  1596 2588-61-4       61    4.000       1726.    
  1597 2588-66-47      66    47.00       1736.    
  1598 2588-71-4       71    4.000       1746.    
  1599 2588-71-365     71    365.0       1749.    
  1600 2564-12-171     12    171.0       1866.    
  1601 2564-16-355     16    355.0       1833.    
  1602 2564-22-37      22    37.00       1807.    
  1603 2530-42-351     42    351.0       1722.    
     MULTIPLE LAYERS AND PROPORTIONS :    2, 0.05       3, 0.95
  1604 2530-48-349     48    349.0       1730.    
     MULTIPLE LAYERS AND PROPORTIONS :    2, 0.05       3, 0.95
  1605 2530-55-355     55    355.0       1739.    
     MULTIPLE LAYERS AND PROPORTIONS :    2, 0.05       3, 0.95
  1606 2530-61-6       61    6.000       1743.    
     MULTIPLE LAYERS AND PROPORTIONS :    2, 0.05       3, 0.95
  1607 2530-66-47      66    47.00       1754.    
     MULTIPLE LAYERS AND PROPORTIONS :    2, 0.05       3, 0.95
  1608 2530-71-5       71    5.000       1764.    
  1609 2530-71-365     71    365.0       1766.    
  1610 2529-17-6       17    6.000       1844.    
  1611 2529-56-24      56    24.00       1737.    
  1612 2529-61-52      61    52.00       1742.    
  1613 2529-66-19      66    19.00       1751.    
  1614 2587-1-105       1    105.0       1880.    
 Observation within a steady-state time step has been moved to the end of the time step.
  1615 2587-7-3         7    3.000       1880.    
  1616 2449-32-85      32    85.00       1798.    
  1617 2492-48-349     48    349.0       1742.    
     MULTIPLE LAYERS AND PROPORTIONS :    2, 0.26       3, 0.74
  1618 2492-61-4       61    4.000       1757.    
     MULTIPLE LAYERS AND PROPORTIONS :    2, 0.26       3, 0.74
  1619 2492-66-39      66    39.00       1766.    
     MULTIPLE LAYERS AND PROPORTIONS :    2, 0.26       3, 0.74
  1620 2492-71-6       71    6.000       1776.    
  1621 2492-71-365     71    365.0       1779.    
  1622 2491-56-3       56    3.000       1769.    
  1623 2491-61-6       61    6.000       1771.    
  1624 2491-66-39      66    39.00       1779.    
  1625 2491-71-6       71    6.000       1788.    
  1626 2491-71-365     71    365.0       1789.    
  1627 2450-48-349     48    349.0       1771.    
     MULTIPLE LAYERS AND PROPORTIONS :    2, 0.28       3, 0.72
  1628 2450-55-354     55    354.0       1777.    
     MULTIPLE LAYERS AND PROPORTIONS :    2, 0.28       3, 0.72
  1629 2450-61-4       61    4.000       1779.    
     MULTIPLE LAYERS AND PROPORTIONS :    2, 0.28       3, 0.72
  1630 2450-66-39      66    39.00       1785.    
     MULTIPLE LAYERS AND PROPORTIONS :    2, 0.28       3, 0.72
  1631 2450-71-6       71    6.000       1795.    
  1632 2450-71-365     71    365.0       1796.    
  1633 2451-48-349     48    349.0       1763.    
     MULTIPLE LAYERS AND PROPORTIONS :    2, 0.31       3, 0.69
  1634 2451-55-355     55    355.0       1771.    
     MULTIPLE LAYERS AND PROPORTIONS :    2, 0.31       3, 0.69
  1635 2451-61-4       61    4.000       1774.    
     MULTIPLE LAYERS AND PROPORTIONS :    2, 0.31       3, 0.69
  1636 2451-66-27      66    27.00       1778.    
     MULTIPLE LAYERS AND PROPORTIONS :    2, 0.31       3, 0.69
  1637 2451-71-6       71    6.000       1788.    
  1638 2451-71-365     71    365.0       1790.    
  1639 2442-48-348     48    348.0       1728.    
  1640 2442-56-23      56    23.00       1738.    
  1641 2442-60-319     60    319.0       1740.    
  1642 2442-66-26      66    26.00       1748.    
  1643 2442-71-11      71    11.00       1762.    
  1644 2452-12-171     12    171.0       1883.    
  1645 2452-16-314     16    314.0       1834.    
  1646 2452-32-85      32    85.00       1756.    
  1647 2452-35-53      35    53.00       1745.    
  1648 2390-42-351     42    351.0       1719.    
  1649 2390-48-349     48    349.0       1727.    
  1650 2390-55-355     55    355.0       1736.    
  1651 2390-66-47      66    47.00       1751.    
  1652 2390-71-6       71    6.000       1762.    
  1653 2390-71-365     71    365.0       1764.    
  1654 2303-42-351     42    351.0       1724.    
     MULTIPLE LAYERS AND PROPORTIONS :    2, 0.07       3, 0.93
  1655 2303-48-349     48    349.0       1730.    
     MULTIPLE LAYERS AND PROPORTIONS :    2, 0.07       3, 0.93
  1656 2303-55-355     55    355.0       1738.    
     MULTIPLE LAYERS AND PROPORTIONS :    2, 0.07       3, 0.93
  1657 2303-61-4       61    4.000       1743.    
     MULTIPLE LAYERS AND PROPORTIONS :    2, 0.07       3, 0.93
  1658 2303-66-47      66    47.00       1752.    
     MULTIPLE LAYERS AND PROPORTIONS :    2, 0.07       3, 0.93
  1659 2303-71-6       71    6.000       1763.    
  1660 2303-71-365     71    365.0       1765.    
  1661 2417-56-24      56    24.00       1738.    
  1662 2417-61-54      61    54.00       1743.    
  1663 2411-56-24      56    24.00       1738.    
  1664 2411-61-54      61    54.00       1743.    
  1665 2259-42-352     42    352.0       1727.    
  1666 2259-56-3       56    3.000       1745.    
  1667 2296-22-38      22    38.00       1830.    
     MULTIPLE LAYERS AND PROPORTIONS :    2, 0.10       3, 0.90
  1668 2296-42-352     42    352.0       1741.    
     MULTIPLE LAYERS AND PROPORTIONS :    2, 0.10       3, 0.90
  1669 2296-48-350     48    350.0       1751.    
     MULTIPLE LAYERS AND PROPORTIONS :    2, 0.10       3, 0.90
  1670 2296-55-354     55    354.0       1759.    
     MULTIPLE LAYERS AND PROPORTIONS :    2, 0.10       3, 0.90
  1671 2296-61-6       61    6.000       1764.    
     MULTIPLE LAYERS AND PROPORTIONS :    2, 0.10       3, 0.90
  1672 2296-66-39      66    39.00       1772.    
     MULTIPLE LAYERS AND PROPORTIONS :    2, 0.10       3, 0.90
  1673 2296-71-6       71    6.000       1781.    
  1674 2296-71-365     71    365.0       1782.    
  1675 2302-48-350     48    350.0       1777.    
     MULTIPLE LAYERS AND PROPORTIONS :    2, 0.29       3, 0.71
  1676 2302-55-354     55    354.0       1777.    
     MULTIPLE LAYERS AND PROPORTIONS :    2, 0.29       3, 0.71
  1677 2302-61-6       61    6.000       1789.    
     MULTIPLE LAYERS AND PROPORTIONS :    2, 0.29       3, 0.71
  1678 2302-66-32      66    32.00       1790.    
     MULTIPLE LAYERS AND PROPORTIONS :    2, 0.29       3, 0.71
  1679 2302-71-6       71    6.000       1799.    
  1680 2302-71-365     71    365.0       1800.    
  1681 2301-37-33      37    33.00       1770.    
     MULTIPLE LAYERS AND PROPORTIONS :    2, 0.27       3, 0.73
  1682 2301-42-352     42    352.0       1779.    
     MULTIPLE LAYERS AND PROPORTIONS :    2, 0.27       3, 0.73
  1683 2301-48-349     48    349.0       1792.    
     MULTIPLE LAYERS AND PROPORTIONS :    2, 0.27       3, 0.73
  1684 2301-55-354     55    354.0       1797.    
     MULTIPLE LAYERS AND PROPORTIONS :    2, 0.27       3, 0.73
  1685 2301-66-1       66    1.000       1802.    
     MULTIPLE LAYERS AND PROPORTIONS :    2, 0.27       3, 0.73
  1686 2301-71-6       71    6.000       1809.    
     MULTIPLE LAYERS AND PROPORTIONS :    2, 0.27       3, 0.73
  1687 2301-71-365     71    365.0       1811.    
     MULTIPLE LAYERS AND PROPORTIONS :    2, 0.27       3, 0.73
  1688 2440-55-354     55    354.0       1790.    
  1689 2440-61-6       61    6.000       1793.    
  1690 2440-65-342     65    342.0       1796.    
  1691 2440-71-6       71    6.000       1808.    
  1692 2440-71-365     71    365.0       1809.    
  1693 2300-16-354     16    354.0       1887.    
     MULTIPLE LAYERS AND PROPORTIONS :    2, 0.44       3, 0.56
  1694 2300-48-350     48    350.0       1798.    
     MULTIPLE LAYERS AND PROPORTIONS :    2, 0.44       3, 0.56
  1695 2300-55-355     55    355.0       1805.    
     MULTIPLE LAYERS AND PROPORTIONS :    2, 0.44       3, 0.56
  1696 2300-61-6       61    6.000       1809.    
     MULTIPLE LAYERS AND PROPORTIONS :    2, 0.44       3, 0.56
  1697 2300-65-341     65    341.0       1808.    
     MULTIPLE LAYERS AND PROPORTIONS :    2, 0.44       3, 0.56
  1698 2300-71-7       71    7.000       1820.    
     MULTIPLE LAYERS AND PROPORTIONS :    2, 0.44       3, 0.56
  1699 2300-71-365     71    365.0       1820.    
  1700 2220-12-311     12    311.0       1928.    
     MULTIPLE LAYERS AND PROPORTIONS :    2, 0.13       3, 0.87
  1701 2220-16-356     16    356.0       1891.    
     MULTIPLE LAYERS AND PROPORTIONS :    2, 0.13       3, 0.87
  1702 2220-48-350     48    350.0       1810.    
     MULTIPLE LAYERS AND PROPORTIONS :    2, 0.13       3, 0.87
  1703 2220-55-354     55    354.0       1812.    
     MULTIPLE LAYERS AND PROPORTIONS :    2, 0.13       3, 0.87
  1704 2220-61-7       61    7.000       1815.    
     MULTIPLE LAYERS AND PROPORTIONS :    2, 0.13       3, 0.87
  1705 2220-66-39      66    39.00       1812.    
     MULTIPLE LAYERS AND PROPORTIONS :    2, 0.13       3, 0.87
  1706 2220-71-7       71    7.000       1827.    
     MULTIPLE LAYERS AND PROPORTIONS :    2, 0.13       3, 0.87
  1707 2220-71-365     71    365.0       1826.    
  1708 2222-55-354     55    354.0       1806.    
     MULTIPLE LAYERS AND PROPORTIONS :    2, 0.07       3, 0.93
  1709 2222-61-6       61    6.000       1815.    
     MULTIPLE LAYERS AND PROPORTIONS :    2, 0.07       3, 0.93
  1710 2222-65-341     65    341.0       1809.    
     MULTIPLE LAYERS AND PROPORTIONS :    2, 0.07       3, 0.93
  1711 2222-71-7       71    7.000       1822.    
     MULTIPLE LAYERS AND PROPORTIONS :    2, 0.07       3, 0.93
  1712 2222-71-365     71    365.0       1821.    
  1713 2096-48-350     48    350.0       1816.    
     MULTIPLE LAYERS AND PROPORTIONS :    2, 0.42       3, 0.58
  1714 2096-55-354     55    354.0       1818.    
     MULTIPLE LAYERS AND PROPORTIONS :    2, 0.42       3, 0.58
  1715 2096-61-6       61    6.000       1824.    
     MULTIPLE LAYERS AND PROPORTIONS :    2, 0.42       3, 0.58
  1716 2096-65-343     65    343.0       1814.    
     MULTIPLE LAYERS AND PROPORTIONS :    2, 0.42       3, 0.58
  1717 2096-71-7       71    7.000       1828.    
     MULTIPLE LAYERS AND PROPORTIONS :    2, 0.42       3, 0.58
  1718 2096-71-365     71    365.0       1827.    
  1719 2089-12-171     12    171.0       1917.    
     MULTIPLE LAYERS AND PROPORTIONS :    2, 0.14       3, 0.86
  1720 2089-42-352     42    352.0       1788.    
     MULTIPLE LAYERS AND PROPORTIONS :    2, 0.14       3, 0.86
  1721 2089-48-350     48    350.0       1796.    
     MULTIPLE LAYERS AND PROPORTIONS :    2, 0.14       3, 0.86
  1722 2089-55-354     55    354.0       1801.    
     MULTIPLE LAYERS AND PROPORTIONS :    2, 0.14       3, 0.86
  1723 2089-61-6       61    6.000       1803.    
     MULTIPLE LAYERS AND PROPORTIONS :    2, 0.14       3, 0.86
  1724 2089-66-55      66    55.00       1803.    
     MULTIPLE LAYERS AND PROPORTIONS :    2, 0.14       3, 0.86
  1725 2089-71-6       71    6.000       1809.    
  1726 2089-71-365     71    365.0       1810.    
  1727 2088-42-352     42    352.0       1799.    
     MULTIPLE LAYERS AND PROPORTIONS :    2, 0.17       3, 0.83
  1728 2088-48-350     48    350.0       1807.    
     MULTIPLE LAYERS AND PROPORTIONS :    2, 0.17       3, 0.83
  1729 2088-55-354     55    354.0       1811.    
     MULTIPLE LAYERS AND PROPORTIONS :    2, 0.17       3, 0.83
  1730 2088-61-6       61    6.000       1813.    
     MULTIPLE LAYERS AND PROPORTIONS :    2, 0.17       3, 0.83
  1731 2088-66-48      66    48.00       1811.    
     MULTIPLE LAYERS AND PROPORTIONS :    2, 0.17       3, 0.83
  1732 2088-71-6       71    6.000       1818.    
  1733 2088-71-365     71    365.0       1819.    
  1734 2620-61-53      61    53.00       1751.    
  1735 2620-66-28      66    28.00       1754.    
  1736 2630-1-86        1    86.00       1889.    
 Observation within a steady-state time step has been moved to the end of the time step.
  1737 2615-21-353     21    353.0       1856.    
  1738 2615-27-20      27    20.00       1833.    
  1739 2615-36-64      36    64.00       1802.    
  1740 2615-42-350     42    350.0       1766.    
  1741 2618-56-23      56    23.00       1750.    
  1742 2618-61-53      61    53.00       1751.    
  1743 2618-66-28      66    28.00       1753.    
  1744 2616-1-109       1    109.0       1890.    
 Observation within a steady-state time step has been moved to the end of the time step.
  1745 2616-7-10        7    10.00       1889.    
  1746 2616-10-319     10    319.0       1878.    
  1747 2607-56-23      56    23.00       1754.    
  1748 2607-61-53      61    53.00       1751.    
  1749 2607-66-28      66    28.00       1752.    
  1750 2578-2-305       2    305.0       1903.    
  1751 2582-1-105       1    105.0       1898.    
 Observation within a steady-state time step has been moved to the end of the time step.
  1752 2577-56-23      56    23.00       1757.    
  1753 2577-61-53      61    53.00       1758.    
  1754 2577-66-28      66    28.00       1760.    
  1755 2573-56-27      56    27.00       1759.    
  1756 2553-33-188     33    188.0       1780.    
  1757 2553-56-27      56    27.00       1769.    
  1758 2574-1-107       1    107.0       1894.    
 Observation within a steady-state time step has been moved to the end of the time step.
  1759 2580-1-109       1    109.0       1894.    
 Observation within a steady-state time step has been moved to the end of the time step.
  1760 2571-21-354     21    354.0       1857.    
  1761 2498-37-34      37    34.00       1812.    
  1762 2498-42-350     42    350.0       1797.    
  1763 2519-56-23      56    23.00       1776.    
  1764 2507-48-300     48    300.0       1781.    
  1765 2507-55-318     55    318.0       1786.    
  1766 2507-60-313     60    313.0       1786.    
  1767 2507-65-364     65    364.0       1792.    
  1768 2507-71-350     71    350.0       1807.    
  1769 2508-48-300     48    300.0       1780.    
  1770 2508-55-318     55    318.0       1782.    
  1771 2508-60-313     60    313.0       1782.    
  1772 2508-65-364     65    364.0       1788.    
  1773 2508-71-350     71    350.0       1808.    
  1774 2448-56-25      56    25.00       1795.    
  1775 2448-61-52      61    52.00       1799.    
  1776 2448-66-20      66    20.00       1803.    
  1777 2311-56-23      56    23.00       1817.    
  1778 2311-61-53      61    53.00       1822.    
  1779 2311-66-28      66    28.00       1823.    
  1780 2084-2-305       2    305.0       1948.    
  1781 2099-42-352     42    352.0       1819.    
     MULTIPLE LAYERS AND PROPORTIONS :    2, 0.43       3, 0.57
  1782 2099-48-365     48    365.0       1824.    
     MULTIPLE LAYERS AND PROPORTIONS :    2, 0.43       3, 0.57
  1783 2099-55-354     55    354.0       1826.    
     MULTIPLE LAYERS AND PROPORTIONS :    2, 0.43       3, 0.57
  1784 2099-61-7       61    7.000       1837.    
     MULTIPLE LAYERS AND PROPORTIONS :    2, 0.43       3, 0.57
  1785 2099-65-344     65    344.0       1824.    
     MULTIPLE LAYERS AND PROPORTIONS :    2, 0.43       3, 0.57
  1786 2099-71-365     71    365.0       1840.    
     MULTIPLE LAYERS AND PROPORTIONS :    2, 0.43       3, 0.57
  1787 2087-71-365     71    365.0       1825.    
  1788 2110-71-365     71    365.0       1844.    
  1789 2040-65-364     65    364.0       1850.    
  1790 2040-71-365     71    365.0       1864.    
  1791 2034-65-364     65    364.0       1830.    
  1792 2034-71-12      71    12.00       1876.    
  1793 2034-71-365     71    365.0       1838.    
  1794 2009-71-8       71    8.000       1870.    
  1795 2009-71-365     71    365.0       1858.    
  1796 2008-71-8       71    8.000       1845.    
  1797 2008-71-365     71    365.0       1838.    
  1798 1923-16-315     16    315.0       1894.    
     MULTIPLE LAYERS AND PROPORTIONS :    2, 0.40       3, 0.60
  1799 1923-22-38      22    38.00       1884.    
     MULTIPLE LAYERS AND PROPORTIONS :    2, 0.40       3, 0.60
  1800 1923-27-24      27    24.00       1863.    
     MULTIPLE LAYERS AND PROPORTIONS :    2, 0.40       3, 0.60
  1801 1923-32-85      32    85.00       1840.    
     MULTIPLE LAYERS AND PROPORTIONS :    2, 0.40       3, 0.60
  1802 1923-36-1       36    1.000       1840.    
     MULTIPLE LAYERS AND PROPORTIONS :    2, 0.40       3, 0.60
  1803 1923-42-352     42    352.0       1841.    
     MULTIPLE LAYERS AND PROPORTIONS :    2, 0.40       3, 0.60
  1804 1923-48-348     48    348.0       1841.    
     MULTIPLE LAYERS AND PROPORTIONS :    2, 0.40       3, 0.60
  1805 1923-55-354     55    354.0       1840.    
     MULTIPLE LAYERS AND PROPORTIONS :    2, 0.40       3, 0.60
  1806 1923-60-323     60    323.0       1856.    
     MULTIPLE LAYERS AND PROPORTIONS :    2, 0.40       3, 0.60
  1807 1923-65-343     65    343.0       1828.    
     MULTIPLE LAYERS AND PROPORTIONS :    2, 0.40       3, 0.60
  1808 1923-71-8       71    8.000       1848.    
     MULTIPLE LAYERS AND PROPORTIONS :    2, 0.40       3, 0.60
  1809 1923-71-365     71    365.0       1844.    
     MULTIPLE LAYERS AND PROPORTIONS :    2, 0.40       3, 0.60
  1810 1914-55-354     55    354.0       1840.    
  1811 1914-61-7       61    7.000       1855.    
  1812 1914-71-8       71    8.000       1848.    
  1813 1919-71-8       71    8.000       1853.    
  1814 1914-71-365     71    365.0       1844.    
  1815 1919-71-365     71    365.0       1847.    
  1816 1938-65-364     65    364.0       1848.    
  1817 1960-65-364     65    364.0       1842.    
  1818 1922-12-171     12    171.0       1950.    
     MULTIPLE LAYERS AND PROPORTIONS :    2, 0.39       3, 0.61
  1819 1922-42-352     42    352.0       1846.    
     MULTIPLE LAYERS AND PROPORTIONS :    2, 0.39       3, 0.61
  1820 1922-48-349     48    349.0       1847.    
     MULTIPLE LAYERS AND PROPORTIONS :    2, 0.39       3, 0.61
  1821 1922-55-354     55    354.0       1846.    
     MULTIPLE LAYERS AND PROPORTIONS :    2, 0.39       3, 0.61
  1822 1922-61-7       61    7.000       1873.    
     MULTIPLE LAYERS AND PROPORTIONS :    2, 0.39       3, 0.61
  1823 1922-71-8       71    8.000       1884.    
     MULTIPLE LAYERS AND PROPORTIONS :    2, 0.39       3, 0.61
  1824 1922-71-365     71    365.0       1872.    
  1825 1918-10-108     10    108.0       1955.    
  1826 1918-66-32      66    32.00       1850.    
  1827 1918-71-8       71    8.000       1881.    
  1828 1918-71-365     71    365.0       1866.    
  1829 1959-71-8       71    8.000       1888.    
  1830 1959-71-365     71    365.0       1873.    
  1831 1944-71-365     71    365.0       1882.    
  1832 1988-35-4       35    4.000       1872.    
     MULTIPLE LAYERS AND PROPORTIONS :    2, 0.38       3, 0.62
  1833 1908-56-18      56    18.00       1862.    
  1834 1908-66-18      66    18.00       1848.    
  1835 2638-33-46      33    46.00       2108.    
  1836 2648-35-95      35    95.00       2092.    
     MULTIPLE LAYERS AND PROPORTIONS :    1, 0.27       2, 0.73
  1837 2627-48-336     48    336.0       2088.    
     MULTIPLE LAYERS AND PROPORTIONS :    1, 0.31       2, 0.69
  1838 2619-2-1         2    1.000       2145.    
     MULTIPLE LAYERS AND PROPORTIONS :    1, 0.73       2, 0.27
  1839 2642-12-43      12    43.00       2100.    
  1840 2649-17-23      17    23.00       2099.    
     MULTIPLE LAYERS AND PROPORTIONS :    1, 0.55       2, 0.45
  1841 2649-22-20      22    20.00       2098.    
     MULTIPLE LAYERS AND PROPORTIONS :    1, 0.55       2, 0.45
  1842 2649-42-363     42    363.0       2087.    
     MULTIPLE LAYERS AND PROPORTIONS :    1, 0.55       2, 0.45
  1843 2649-48-336     48    336.0       2084.    
     MULTIPLE LAYERS AND PROPORTIONS :    1, 0.55       2, 0.45
  1844 2649-56-20      56    20.00       2111.    
     MULTIPLE LAYERS AND PROPORTIONS :    1, 0.55       2, 0.45
  1845 2649-61-55      61    55.00       2081.    
     MULTIPLE LAYERS AND PROPORTIONS :    1, 0.55       2, 0.45
  1846 2628-1-365       1    365.0       2129.    
 Observation within a steady-state time step has been moved to the end of the time step.
  1847 2650-71-350     71    350.0       2071.    
  1848 2655-42-362     42    362.0       2084.    
  1849 2655-48-362     48    362.0       2083.    
  1850 2655-55-343     55    343.0       2093.    
  1851 2655-61-40      61    40.00       2080.    
  1852 2655-66-55      66    55.00       2057.    
  1853 2655-71-350     71    350.0       2061.    
  1854 2604-61-55      61    55.00       2078.    
  1855 2626-22-20      22    20.00       2106.    
     MULTIPLE LAYERS AND PROPORTIONS :    1, 0.37       2, 0.48       3, 0.15
  1856 2626-32-42      32    42.00       2110.    
     MULTIPLE LAYERS AND PROPORTIONS :    1, 0.37       2, 0.48       3, 0.15
  1857 2623-8-279       8    279.0       2109.    
  1858 2623-12-32      12    32.00       2110.    
  1859 2623-17-22      17    22.00       2109.    
  1860 2623-22-1       22    1.000       2104.    
  1861 2623-27-34      27    34.00       2113.    
  1862 2608-12-43      12    43.00       2113.    
  1863 2608-17-23      17    23.00       2111.    
  1864 2608-22-20      22    20.00       2105.    
  1865 2608-32-42      32    42.00       2110.    
  1866 2629-3-217       3    217.0       2124.    
  1867 2606-56-26      56    26.00       2123.    
  1868 2606-61-55      61    55.00       2120.    
  1869 2606-66-20      66    20.00       2114.    
  1870 2592-12-43      12    43.00       2137.    
     MULTIPLE LAYERS AND PROPORTIONS :    1, 0.71       2, 0.29
  1871 2592-17-23      17    23.00       2133.    
     MULTIPLE LAYERS AND PROPORTIONS :    1, 0.71       2, 0.29
  1872 2592-22-23      22    23.00       2125.    
     MULTIPLE LAYERS AND PROPORTIONS :    1, 0.71       2, 0.29
  1873 2592-42-364     42    364.0       2123.    
     MULTIPLE LAYERS AND PROPORTIONS :    1, 0.71       2, 0.29
  1874 2592-48-336     48    336.0       2115.    
     MULTIPLE LAYERS AND PROPORTIONS :    1, 0.71       2, 0.29
  1875 2592-56-20      56    20.00       2137.    
     MULTIPLE LAYERS AND PROPORTIONS :    1, 0.71       2, 0.29
  1876 2592-61-55      61    55.00       2113.    
     MULTIPLE LAYERS AND PROPORTIONS :    1, 0.71       2, 0.29
  1877 2603-27-15      27    15.00       2121.    
     MULTIPLE LAYERS AND PROPORTIONS :    1, 0.75       2, 0.25
  1878 2603-42-362     42    362.0       2104.    
     MULTIPLE LAYERS AND PROPORTIONS :    1, 0.75       2, 0.25
  1879 2603-48-336     48    336.0       2101.    
     MULTIPLE LAYERS AND PROPORTIONS :    1, 0.75       2, 0.25
  1880 2603-55-343     55    343.0       2114.    
     MULTIPLE LAYERS AND PROPORTIONS :    1, 0.75       2, 0.25
  1881 2603-61-40      61    40.00       2099.    
     MULTIPLE LAYERS AND PROPORTIONS :    1, 0.75       2, 0.25
  1882 2603-65-343     65    343.0       2064.    
     MULTIPLE LAYERS AND PROPORTIONS :    1, 0.75       2, 0.25
  1883 2603-71-47      71    47.00       2078.    
     MULTIPLE LAYERS AND PROPORTIONS :    1, 0.75       2, 0.25
  1884 2603-71-350     71    350.0       2074.    
     MULTIPLE LAYERS AND PROPORTIONS :    1, 0.75       2, 0.25
  1885 2593-1-365       1    365.0       2142.    
 Observation within a steady-state time step has been moved to the end of the time step.
  1886 2558-22-23      22    23.00       2120.    
     MULTIPLE LAYERS AND PROPORTIONS :    1, 0.23       2, 0.77
  1887 2558-27-35      27    35.00       2127.    
     MULTIPLE LAYERS AND PROPORTIONS :    1, 0.23       2, 0.77
  1888 2558-42-362     42    362.0       2113.    
     MULTIPLE LAYERS AND PROPORTIONS :    1, 0.23       2, 0.77
  1889 2558-48-362     48    362.0       2109.    
     MULTIPLE LAYERS AND PROPORTIONS :    1, 0.23       2, 0.77
  1890 2558-55-343     55    343.0       2119.    
     MULTIPLE LAYERS AND PROPORTIONS :    1, 0.23       2, 0.77
  1891 2558-61-40      61    40.00       2106.    
     MULTIPLE LAYERS AND PROPORTIONS :    1, 0.23       2, 0.77
  1892 2651-42-356     42    356.0       2169.    
  1893 2632-66-33      66    33.00       2145.    
  1894 2632-71-63      71    63.00       2134.    
  1895 2644-48-345     48    345.0       2173.    
  1896 2644-71-63      71    63.00       2134.    
  1897 2645-42-356     42    356.0       2172.    
  1898 2645-48-345     48    345.0       2158.    
  1899 2645-66-33      66    33.00       2144.    
  1900 2645-71-63      71    63.00       2131.    
  1901 2624-71-63      71    63.00       2130.    
  1902 2609-42-365     42    365.0       2143.    
     MULTIPLE LAYERS AND PROPORTIONS :    1, 0.91       2, 0.09
  1903 2609-48-338     48    338.0       2138.    
     MULTIPLE LAYERS AND PROPORTIONS :    1, 0.91       2, 0.09
  1904 2609-56-24      56    24.00       2128.    
     MULTIPLE LAYERS AND PROPORTIONS :    1, 0.91       2, 0.09
  1905 2609-61-54      61    54.00       2121.    
     MULTIPLE LAYERS AND PROPORTIONS :    1, 0.91       2, 0.09
  1906 2609-66-26      66    26.00       2103.    
     MULTIPLE LAYERS AND PROPORTIONS :    1, 0.91       2, 0.09
  1907 2609-71-62      71    62.00       2095.    
     MULTIPLE LAYERS AND PROPORTIONS :    1, 0.91       2, 0.09
  1908 2631-56-24      56    24.00       2101.    
  1909 2631-61-54      61    54.00       2085.    
  1910 2631-66-33      66    33.00       2058.    
  1911 2652-17-24      17    24.00       2121.    
     MULTIPLE LAYERS AND PROPORTIONS :    1, 0.25       2, 0.75
  1912 2652-22-19      22    19.00       2113.    
     MULTIPLE LAYERS AND PROPORTIONS :    1, 0.25       2, 0.75
  1913 2652-27-33      27    33.00       2114.    
     MULTIPLE LAYERS AND PROPORTIONS :    1, 0.25       2, 0.75
  1914 2652-42-362     42    362.0       2099.    
     MULTIPLE LAYERS AND PROPORTIONS :    1, 0.25       2, 0.75
  1915 2634-66-19      66    19.00       2059.    
  1916 2633-56-23      56    23.00       2109.    
  1917 2647-1-51        1    51.00       2132.    
 Observation within a steady-state time step has been moved to the end of the time step.
  1918 2613-56-26      56    26.00       2121.    
     MULTIPLE LAYERS AND PROPORTIONS :    1, 0.28       2, 0.72
  1919 2622-11-34      11    34.00       2132.    
     MULTIPLE LAYERS AND PROPORTIONS :    1, 0.57       2, 0.43
  1920 2622-17-3       17    3.000       2120.    
     MULTIPLE LAYERS AND PROPORTIONS :    1, 0.57       2, 0.43
  1921 2622-22-25      22    25.00       2119.    
     MULTIPLE LAYERS AND PROPORTIONS :    1, 0.57       2, 0.43
  1922 2622-27-11      27    11.00       2120.    
     MULTIPLE LAYERS AND PROPORTIONS :    1, 0.57       2, 0.43
  1923 2622-32-46      32    46.00       2113.    
     MULTIPLE LAYERS AND PROPORTIONS :    1, 0.57       2, 0.43
  1924 2625-42-362     42    362.0       2107.    
     MULTIPLE LAYERS AND PROPORTIONS :    1, 0.30       2, 0.70
  1925 2605-42-362     42    362.0       2114.    
  1926 2605-48-362     48    362.0       2110.    
  1927 2605-55-343     55    343.0       2118.    
  1928 2605-61-38      61    38.00       2104.    
  1929 2605-66-49      66    49.00       2073.    
  1930 2605-71-40      71    40.00       2077.    
  1931 2605-71-350     71    350.0       2076.    
  1932 2570-8-37        8    37.00       2157.    
  1933 2570-12-46      12    46.00       2145.    
  1934 2570-17-24      17    24.00       2139.    
  1935 2570-22-25      22    25.00       2125.    
  1936 2560-22-25      22    25.00       2127.    
     MULTIPLE LAYERS AND PROPORTIONS :    1, 0.11       2, 0.61       3, 0.28
  1937 2560-27-34      27    34.00       2126.    
     MULTIPLE LAYERS AND PROPORTIONS :    1, 0.11       2, 0.61       3, 0.28
  1938 2560-32-36      32    36.00       2126.    
     MULTIPLE LAYERS AND PROPORTIONS :    1, 0.11       2, 0.61       3, 0.28
  1939 2560-42-363     42    363.0       2116.    
     MULTIPLE LAYERS AND PROPORTIONS :    1, 0.11       2, 0.61       3, 0.28
  1940 2545-56-20      56    20.00       2135.    
  1941 2544-1-50        1    50.00       2178.    
 Observation within a steady-state time step has been moved to the end of the time step.
  1942 2544-6-39        6    39.00       2167.    
  1943 2576-16-25      16    25.00       2150.    
  1944 2576-22-25      22    25.00       2142.    
  1945 2576-26-28      26    28.00       2140.    
  1946 2581-66-26      66    26.00       2077.    
  1947 2581-71-62      71    62.00       2076.    
  1948 2600-17-24      17    24.00       2133.    
     MULTIPLE LAYERS AND PROPORTIONS :    1, 0.54       2, 0.46
  1949 2600-22-25      22    25.00       2127.    
     MULTIPLE LAYERS AND PROPORTIONS :    1, 0.54       2, 0.46
  1950 2600-27-54      27    54.00       2129.    
     MULTIPLE LAYERS AND PROPORTIONS :    1, 0.54       2, 0.46
  1951 2600-32-36      32    36.00       2120.    
     MULTIPLE LAYERS AND PROPORTIONS :    1, 0.54       2, 0.46
  1952 2600-38-32      38    32.00       2112.    
     MULTIPLE LAYERS AND PROPORTIONS :    1, 0.54       2, 0.46
  1953 2600-39-32      39    32.00       2112.    
     MULTIPLE LAYERS AND PROPORTIONS :    1, 0.54       2, 0.46
  1954 2600-48-362     48    362.0       2111.    
     MULTIPLE LAYERS AND PROPORTIONS :    1, 0.54       2, 0.46
  1955 2600-55-343     55    343.0       2114.    
     MULTIPLE LAYERS AND PROPORTIONS :    1, 0.54       2, 0.46
  1956 2600-61-40      61    40.00       2102.    
     MULTIPLE LAYERS AND PROPORTIONS :    1, 0.54       2, 0.46
  1957 2600-66-49      66    49.00       2085.    
     MULTIPLE LAYERS AND PROPORTIONS :    1, 0.54       2, 0.46
  1958 2600-71-40      71    40.00       2075.    
     MULTIPLE LAYERS AND PROPORTIONS :    1, 0.54       2, 0.46
  1959 2600-71-350     71    350.0       2092.    
     MULTIPLE LAYERS AND PROPORTIONS :    1, 0.54       2, 0.46
  1960 2566-66-26      66    26.00       2067.    
  1961 2562-48-335     48    335.0       2109.    
     MULTIPLE LAYERS AND PROPORTIONS :    1, 0.18       2, 0.82
  1962 2562-56-25      56    25.00       2124.    
     MULTIPLE LAYERS AND PROPORTIONS :    1, 0.18       2, 0.82
  1963 2543-1-2         1    2.000       2177.    
 Observation within a steady-state time step has been moved to the end of the time step.
  1964 2546-7-316       7    316.0       2175.    
  1965 2546-12-46      12    46.00       2162.    
  1966 2546-17-33      17    33.00       2154.    
  1967 2546-22-25      22    25.00       2145.    
  1968 2546-27-11      27    11.00       2162.    
  1969 2546-32-46      32    46.00       2144.    
  1970 2546-38-46      38    46.00       2137.    
  1971 2546-39-32      39    32.00       2139.    
  1972 2546-56-25      56    25.00       2163.    
  1973 2541-17-3       17    3.000       2147.    
  1974 2541-27-11      27    11.00       2163.    
  1975 2548-42-362     42    362.0       2126.    
  1976 2548-48-362     48    362.0       2120.    
  1977 2548-55-347     55    347.0       2124.    
  1978 2548-60-362     60    362.0       2111.    
  1979 2547-66-48      66    48.00       2087.    
  1980 2547-71-12      71    12.00       2084.    
  1981 2547-71-350     71    350.0       2082.    
  1982 2551-42-352     42    352.0       2126.    
     MULTIPLE LAYERS AND PROPORTIONS :    1, 0.12       2, 0.88
  1983 2551-56-24      56    24.00       2127.    
     MULTIPLE LAYERS AND PROPORTIONS :    1, 0.12       2, 0.88
  1984 2551-66-26      66    26.00       2085.    
     MULTIPLE LAYERS AND PROPORTIONS :    1, 0.12       2, 0.88
  1985 2550-42-362     42    362.0       2130.    
  1986 2550-56-24      56    24.00       2122.    
  1987 2550-61-54      61    54.00       2107.    
  1988 2550-66-26      66    26.00       2085.    
  1989 2542-22-25      22    25.00       2156.    
     MULTIPLE LAYERS AND PROPORTIONS :    1, 0.57       2, 0.43
  1990 2542-27-54      27    54.00       2165.    
     MULTIPLE LAYERS AND PROPORTIONS :    1, 0.57       2, 0.43
  1991 2542-66-26      66    26.00       2089.    
     MULTIPLE LAYERS AND PROPORTIONS :    1, 0.57       2, 0.43
  1992 2552-56-24      56    24.00       2120.    
  1993 2552-61-54      61    54.00       2109.    
  1994 2552-66-33      66    33.00       2092.    
  1995 2552-71-62      71    62.00       2083.    
  1996 2598-1-274       1    274.0       2210.    
 Observation within a steady-state time step has been moved to the end of the time step.
  1997 2598-6-284       6    284.0       2205.    
  1998 2598-11-62      11    62.00       2197.    
  1999 2584-12-325     12    325.0       2205.    
  2000 2584-17-3       17    3.000       2190.    
  2001 2584-22-31      22    31.00       2181.    
  2002 2584-27-11      27    11.00       2173.    
  2003 2540-48-357     48    357.0       2153.    
  2004 2540-55-343     55    343.0       2142.    
  2005 2540-61-38      61    38.00       2135.    
  2006 2540-66-59      66    59.00       2125.    
  2007 2540-71-40      71    40.00       2122.    
  2008 2540-71-365     71    365.0       2122.    
  2009 2597-42-335     42    335.0       2153.    
  2010 2597-48-357     48    357.0       2151.    
  2011 2597-55-343     55    343.0       2141.    
  2012 2597-61-38      61    38.00       2136.    
  2013 2597-66-59      66    59.00       2129.    
  2014 2597-71-40      71    40.00       2121.    
  2015 2597-71-365     71    365.0       2119.    
  2016 2565-48-342     48    342.0       2155.    
  2017 2575-55-343     55    343.0       2203.    
  2018 2539-11-34      11    34.00       2244.    
  2019 2539-22-79      22    79.00       2212.    
  2020 2539-32-46      32    46.00       2200.    
  2021 2539-37-34      37    34.00       2187.    
  2022 2539-48-337     48    337.0       2174.    
  2023 2539-60-321     60    321.0       2158.    
  2024 2539-65-299     65    299.0       2144.    
  2025 2539-71-13      71    13.00       2144.    
  2026 2539-71-365     71    365.0       2143.    
  2027 2478-61-31      61    31.00       2169.    
  2028 2478-66-1       66    1.000       2150.    
  2029 2478-71-41      71    41.00       2148.    
  2030 2478-71-365     71    365.0       2152.    
  2031 2474-16-298     16    298.0       2273.    
  2032 2474-22-32      22    32.00       2270.    
  2033 2474-27-10      27    10.00       2263.    
  2034 2531-42-362     42    362.0       2157.    
  2035 2531-48-357     48    357.0       2153.    
  2036 2531-55-343     55    343.0       2141.    
  2037 2531-61-38      61    38.00       2134.    
  2038 2531-66-59      66    59.00       2123.    
  2039 2531-71-40      71    40.00       2121.    
  2040 2531-71-365     71    365.0       2121.    
  2041 2504-71-63      71    63.00       2155.    
  2042 2520-71-62      71    62.00       2132.    
  2043 2482-42-362     42    362.0       2162.    
     MULTIPLE LAYERS AND PROPORTIONS :    1, 0.18       2, 0.82
  2044 2482-48-362     48    362.0       2150.    
     MULTIPLE LAYERS AND PROPORTIONS :    1, 0.18       2, 0.82
  2045 2482-55-343     55    343.0       2143.    
     MULTIPLE LAYERS AND PROPORTIONS :    1, 0.18       2, 0.82
  2046 2482-61-40      61    40.00       2132.    
     MULTIPLE LAYERS AND PROPORTIONS :    1, 0.18       2, 0.82
  2047 2482-66-45      66    45.00       2121.    
     MULTIPLE LAYERS AND PROPORTIONS :    1, 0.18       2, 0.82
  2048 2482-71-26      71    26.00       2126.    
     MULTIPLE LAYERS AND PROPORTIONS :    1, 0.18       2, 0.82
  2049 2482-71-365     71    365.0       2127.    
     MULTIPLE LAYERS AND PROPORTIONS :    1, 0.18       2, 0.82
  2050 2470-55-343     55    343.0       2152.    
  2051 2470-66-45      66    45.00       2131.    
  2052 2470-71-41      71    41.00       2133.    
  2053 2470-71-365     71    365.0       2136.    
  2054 2473-55-343     55    343.0       2154.    
  2055 2476-48-362     48    362.0       2155.    
  2056 2476-55-343     55    343.0       2151.    
  2057 2476-61-32      61    32.00       2143.    
  2058 2476-66-45      66    45.00       2142.    
  2059 2476-71-41      71    41.00       2132.    
  2060 2476-71-365     71    365.0       2135.    
  2061 2523-37-1       37    1.000       2161.    
  2062 2512-71-62      71    62.00       2101.    
  2063 2513-17-24      17    24.00       2182.    
  2064 2513-22-25      22    25.00       2173.    
  2065 2513-26-362     26    362.0       2168.    
  2066 2487-42-355     42    355.0       2146.    
  2067 2467-12-46      12    46.00       2194.    
  2068 2467-17-3       17    3.000       2183.    
  2069 2467-22-25      22    25.00       2173.    
  2070 2467-27-54      27    54.00       2176.    
  2071 2467-32-46      32    46.00       2155.    
  2072 2467-38-32      38    32.00       2148.    
  2073 2466-2-128       2    128.0       2235.    
  2074 2496-42-335     42    335.0       2150.    
  2075 2496-48-362     48    362.0       2143.    
  2076 2496-55-343     55    343.0       2132.    
  2077 2496-61-32      61    32.00       2123.    
  2078 2496-66-45      66    45.00       2109.    
  2079 2496-71-40      71    40.00       2113.    
  2080 2496-71-365     71    365.0       2113.    
  2081 2486-42-362     42    362.0       2150.    
  2082 2486-48-362     48    362.0       2143.    
  2083 2486-55-343     55    343.0       2133.    
  2084 2486-60-344     60    344.0       2117.    
  2085 2486-66-45      66    45.00       2110.    
  2086 2486-71-26      71    26.00       2111.    
  2087 2486-71-365     71    365.0       2115.    
  2088 2499-33-95      33    95.00       2163.    
     MULTIPLE LAYERS AND PROPORTIONS :    1, 0.52       2, 0.48
  2089 2493-66-33      66    33.00       2109.    
  2090 2490-66-45      66    45.00       2105.    
  2091 2490-71-26      71    26.00       2099.    
  2092 2490-71-365     71    365.0       2101.    
  2093 2538-17-24      17    24.00       2177.    
     MULTIPLE LAYERS AND PROPORTIONS :    1, 0.25       2, 0.75
  2094 2538-22-25      22    25.00       2168.    
     MULTIPLE LAYERS AND PROPORTIONS :    1, 0.25       2, 0.75
  2095 2538-27-47      27    47.00       2170.    
     MULTIPLE LAYERS AND PROPORTIONS :    1, 0.25       2, 0.75
  2096 2538-32-46      32    46.00       2157.    
     MULTIPLE LAYERS AND PROPORTIONS :    1, 0.25       2, 0.75
  2097 2538-37-34      37    34.00       2146.    
     MULTIPLE LAYERS AND PROPORTIONS :    1, 0.25       2, 0.75
  2098 2538-42-363     42    363.0       2138.    
     MULTIPLE LAYERS AND PROPORTIONS :    1, 0.25       2, 0.75
  2099 2538-48-338     48    338.0       2134.    
     MULTIPLE LAYERS AND PROPORTIONS :    1, 0.25       2, 0.75
  2100 2538-56-24      56    24.00       2127.    
     MULTIPLE LAYERS AND PROPORTIONS :    1, 0.25       2, 0.75
  2101 2538-60-321     60    321.0       2116.    
     MULTIPLE LAYERS AND PROPORTIONS :    1, 0.25       2, 0.75
  2102 2534-56-24      56    24.00       2132.    
  2103 2534-66-19      66    19.00       2100.    
  2104 2532-56-24      56    24.00       2125.    
  2105 2500-71-62      71    62.00       2105.    
  2106 2517-48-362     48    362.0       2129.    
  2107 2517-55-343     55    343.0       2127.    
  2108 2517-61-32      61    32.00       2115.    
  2109 2517-66-40      66    40.00       2094.    
  2110 2517-71-350     71    350.0       2088.    
  2111 2514-17-3       17    3.000       2169.    
  2112 2475-22-25      22    25.00       2153.    
     MULTIPLE LAYERS AND PROPORTIONS :    1, 0.31       2, 0.69
  2113 2475-27-11      27    11.00       2143.    
     MULTIPLE LAYERS AND PROPORTIONS :    1, 0.31       2, 0.69
  2114 2475-43-32      43    32.00       2135.    
     MULTIPLE LAYERS AND PROPORTIONS :    1, 0.31       2, 0.69
  2115 2475-48-362     48    362.0       2133.    
     MULTIPLE LAYERS AND PROPORTIONS :    1, 0.31       2, 0.69
  2116 2475-55-347     55    347.0       2130.    
     MULTIPLE LAYERS AND PROPORTIONS :    1, 0.31       2, 0.69
  2117 2475-60-362     60    362.0       2121.    
     MULTIPLE LAYERS AND PROPORTIONS :    1, 0.31       2, 0.69
  2118 2475-66-1       66    1.000       2097.    
     MULTIPLE LAYERS AND PROPORTIONS :    1, 0.31       2, 0.69
  2119 2475-71-350     71    350.0       2090.    
     MULTIPLE LAYERS AND PROPORTIONS :    1, 0.31       2, 0.69
  2120 2480-22-25      22    25.00       2178.    
     MULTIPLE LAYERS AND PROPORTIONS :    1, 0.42       2, 0.58
  2121 2480-42-362     42    362.0       2140.    
     MULTIPLE LAYERS AND PROPORTIONS :    1, 0.42       2, 0.58
  2122 2480-48-362     48    362.0       2136.    
     MULTIPLE LAYERS AND PROPORTIONS :    1, 0.42       2, 0.58
  2123 2480-56-5       56    5.000       2140.    
     MULTIPLE LAYERS AND PROPORTIONS :    1, 0.42       2, 0.58
  2124 2480-61-5       61    5.000       2134.    
     MULTIPLE LAYERS AND PROPORTIONS :    1, 0.42       2, 0.58
  2125 2480-66-40      66    40.00       2106.    
     MULTIPLE LAYERS AND PROPORTIONS :    1, 0.42       2, 0.58
  2126 2480-71-26      71    26.00       2096.    
     MULTIPLE LAYERS AND PROPORTIONS :    1, 0.42       2, 0.58
  2127 2480-71-350     71    350.0       2098.    
     MULTIPLE LAYERS AND PROPORTIONS :    1, 0.42       2, 0.58
  2128 2471-17-3       17    3.000       2179.    
  2129 2471-27-11      27    11.00       2163.    
  2130 2536-48-362     48    362.0       2124.    
     MULTIPLE LAYERS AND PROPORTIONS :    1, 0.43       2, 0.57
  2131 2536-55-347     55    347.0       2125.    
     MULTIPLE LAYERS AND PROPORTIONS :    1, 0.43       2, 0.57
  2132 2536-60-362     60    362.0       2113.    
     MULTIPLE LAYERS AND PROPORTIONS :    1, 0.43       2, 0.57
  2133 2536-66-40      66    40.00       2091.    
     MULTIPLE LAYERS AND PROPORTIONS :    1, 0.43       2, 0.57
  2134 2536-71-350     71    350.0       2085.    
     MULTIPLE LAYERS AND PROPORTIONS :    1, 0.43       2, 0.57
  2135 2528-42-362     42    362.0       2129.    
     MULTIPLE LAYERS AND PROPORTIONS :    1, 0.42       2, 0.58
  2136 2528-48-362     48    362.0       2123.    
     MULTIPLE LAYERS AND PROPORTIONS :    1, 0.42       2, 0.58
  2137 2528-55-347     55    347.0       2126.    
     MULTIPLE LAYERS AND PROPORTIONS :    1, 0.42       2, 0.58
  2138 2528-60-362     60    362.0       2113.    
     MULTIPLE LAYERS AND PROPORTIONS :    1, 0.42       2, 0.58
  2139 2528-66-48      66    48.00       2088.    
     MULTIPLE LAYERS AND PROPORTIONS :    1, 0.42       2, 0.58
  2140 2528-71-350     71    350.0       2082.    
     MULTIPLE LAYERS AND PROPORTIONS :    1, 0.42       2, 0.58
  2141 2509-17-3       17    3.000       2148.    
  2142 2509-31-351     31    351.0       2138.    
  2143 2521-42-363     42    363.0       2132.    
     MULTIPLE LAYERS AND PROPORTIONS :    1, 0.28       2, 0.72
  2144 2521-48-335     48    335.0       2126.    
     MULTIPLE LAYERS AND PROPORTIONS :    1, 0.28       2, 0.72
  2145 2521-56-25      56    25.00       2133.    
     MULTIPLE LAYERS AND PROPORTIONS :    1, 0.28       2, 0.72
  2146 2521-61-56      61    56.00       2117.    
     MULTIPLE LAYERS AND PROPORTIONS :    1, 0.28       2, 0.72
  2147 2505-56-25      56    25.00       2133.    
  2148 2506-48-335     48    335.0       2129.    
     MULTIPLE LAYERS AND PROPORTIONS :    1, 0.11       2, 0.89
  2149 2506-56-25      56    25.00       2133.    
     MULTIPLE LAYERS AND PROPORTIONS :    1, 0.11       2, 0.89
  2150 2506-61-56      61    56.00       2082.    
     MULTIPLE LAYERS AND PROPORTIONS :    1, 0.11       2, 0.89
  2151 2506-66-18      66    18.00       2092.    
     MULTIPLE LAYERS AND PROPORTIONS :    1, 0.11       2, 0.89
  2152 2506-71-11      71    11.00       2089.    
     MULTIPLE LAYERS AND PROPORTIONS :    1, 0.11       2, 0.89
  2153 2506-71-365     71    365.0       2089.    
     MULTIPLE LAYERS AND PROPORTIONS :    1, 0.11       2, 0.89
  2154 2488-1-357       1    357.0       2201.    
 Observation within a steady-state time step has been moved to the end of the time step.
  2155 2488-7-316       7    316.0       2188.    
  2156 2488-10-283     10    283.0       2174.    
  2157 2488-17-33      17    33.00       2162.    
  2158 2488-22-25      22    25.00       2152.    
  2159 2488-27-47      27    47.00       2156.    
  2160 2488-37-27      37    27.00       2136.    
  2161 2472-1-357       1    357.0       2208.    
 Observation within a steady-state time step has been moved to the end of the time step.
  2162 2472-8-36        8    36.00       2189.    
  2163 2472-12-50      12    50.00       2174.    
  2164 2472-17-33      17    33.00       2162.    
  2165 2537-22-25      22    25.00       2136.    
  2166 2537-27-47      27    47.00       2145.    
  2167 2537-32-46      32    46.00       2140.    
  2168 2537-37-34      37    34.00       2138.    
  2169 2537-42-363     42    363.0       2125.    
  2170 2537-56-20      56    20.00       2135.    
  2171 2497-42-363     42    363.0       2131.    
  2172 2497-48-337     48    337.0       2126.    
  2173 2497-56-20      56    20.00       2135.    
  2174 2434-48-362     48    362.0       2131.    
  2175 2434-55-346     55    346.0       2132.    
  2176 2434-61-6       61    6.000       2124.    
  2177 2434-66-48      66    48.00       2095.    
  2178 2434-71-12      71    12.00       2089.    
  2179 2434-71-350     71    350.0       2088.    
  2180 2355-42-362     42    362.0       2138.    
     MULTIPLE LAYERS AND PROPORTIONS :    2, 0.78       3, 0.22
  2181 2355-48-362     48    362.0       2135.    
     MULTIPLE LAYERS AND PROPORTIONS :    2, 0.78       3, 0.22
  2182 2355-55-343     55    343.0       2134.    
     MULTIPLE LAYERS AND PROPORTIONS :    2, 0.78       3, 0.22
  2183 2355-61-40      61    40.00       2122.    
     MULTIPLE LAYERS AND PROPORTIONS :    2, 0.78       3, 0.22
  2184 2355-71-47      71    47.00       2094.    
  2185 2355-71-350     71    350.0       2092.    
  2186 2428-56-38      56    38.00       2135.    
  2187 2428-66-48      66    48.00       2102.    
  2188 2428-71-5       71    5.000       2091.    
  2189 2428-71-365     71    365.0       2091.    
  2190 2433-66-48      66    48.00       2099.    
  2191 2433-71-5       71    5.000       2091.    
  2192 2433-71-365     71    365.0       2087.    
  2193 2403-48-362     48    362.0       2122.    
     MULTIPLE LAYERS AND PROPORTIONS :    1, 0.25       2, 0.75
  2194 2403-55-343     55    343.0       2126.    
     MULTIPLE LAYERS AND PROPORTIONS :    1, 0.25       2, 0.75
  2195 2403-66-59      66    59.00       2098.    
     MULTIPLE LAYERS AND PROPORTIONS :    1, 0.25       2, 0.75
  2196 2403-71-47      71    47.00       2091.    
     MULTIPLE LAYERS AND PROPORTIONS :    1, 0.25       2, 0.75
  2197 2403-71-365     71    365.0       2090.    
     MULTIPLE LAYERS AND PROPORTIONS :    1, 0.25       2, 0.75
  2198 2410-66-59      66    59.00       2100.    
  2199 2410-71-47      71    47.00       2091.    
  2200 2410-71-365     71    365.0       2090.    
  2201 2462-8-38        8    38.00       2184.    
  2202 2464-12-50      12    50.00       2168.    
  2203 2464-17-23      17    23.00       2159.    
  2204 2464-22-23      22    23.00       2149.    
  2205 2459-42-362     42    362.0       2136.    
  2206 2459-48-362     48    362.0       2131.    
  2207 2409-66-48      66    48.00       2103.    
  2208 2409-71-12      71    12.00       2092.    
  2209 2357-12-50      12    50.00       2196.    
  2210 2357-17-35      17    35.00       2180.    
  2211 2357-22-23      22    23.00       2170.    
  2212 2357-27-34      27    34.00       2169.    
  2213 2357-37-34      37    34.00       2157.    
  2214 2357-66-48      66    48.00       2119.    
  2215 2357-71-12      71    12.00       2085.    
  2216 2357-71-365     71    365.0       2093.    
  2217 2336-61-21      61    21.00       2132.    
  2218 2363-56-38      56    38.00       2144.    
  2219 2363-66-48      66    48.00       2121.    
  2220 2363-71-5       71    5.000       2102.    
  2221 2363-71-365     71    365.0       2103.    
  2222 2460-22-25      22    25.00       2164.    
     MULTIPLE LAYERS AND PROPORTIONS :    1, 0.38       2, 0.62
  2223 2460-48-362     48    362.0       2136.    
     MULTIPLE LAYERS AND PROPORTIONS :    1, 0.38       2, 0.62
  2224 2460-55-343     55    343.0       2134.    
     MULTIPLE LAYERS AND PROPORTIONS :    1, 0.38       2, 0.62
  2225 2460-61-20      61    20.00       2124.    
     MULTIPLE LAYERS AND PROPORTIONS :    1, 0.38       2, 0.62
  2226 2460-66-49      66    49.00       2104.    
     MULTIPLE LAYERS AND PROPORTIONS :    1, 0.38       2, 0.62
  2227 2460-71-41      71    41.00       2096.    
     MULTIPLE LAYERS AND PROPORTIONS :    1, 0.38       2, 0.62
  2228 2460-71-350     71    350.0       2094.    
     MULTIPLE LAYERS AND PROPORTIONS :    1, 0.38       2, 0.62
  2229 2399-56-38      56    38.00       2138.    
  2230 2399-66-48      66    48.00       2114.    
  2231 2399-71-5       71    5.000       2100.    
  2232 2399-71-365     71    365.0       2099.    
  2233 2373-56-6       56    6.000       2140.    
     MULTIPLE LAYERS AND PROPORTIONS :    1, 0.25       2, 0.60       3, 0.15
  2234 2373-61-6       61    6.000       2129.    
     MULTIPLE LAYERS AND PROPORTIONS :    1, 0.25       2, 0.60       3, 0.15
  2235 2373-66-48      66    48.00       2121.    
     MULTIPLE LAYERS AND PROPORTIONS :    1, 0.25       2, 0.60       3, 0.15
  2236 2373-71-12      71    12.00       2104.    
     MULTIPLE LAYERS AND PROPORTIONS :    1, 0.25       2, 0.60       3, 0.15
  2237 2373-71-365     71    365.0       2104.    
     MULTIPLE LAYERS AND PROPORTIONS :    1, 0.25       2, 0.60       3, 0.15
  2238 2356-56-38      56    38.00       2142.    
  2239 2356-66-42      66    42.00       2133.    
  2240 2356-71-5       71    5.000       2113.    
  2241 2356-71-365     71    365.0       2115.    
  2242 2389-8-37        8    37.00       2225.    
  2243 2389-12-38      12    38.00       2209.    
  2244 2388-17-34      17    34.00       2187.    
  2245 2388-22-25      22    25.00       2175.    
  2246 2388-32-46      32    46.00       2167.    
  2247 2388-38-32      38    32.00       2160.    
  2248 2343-12-50      12    50.00       2205.    
     MULTIPLE LAYERS AND PROPORTIONS :    1, 0.60       2, 0.40
  2249 2343-17-35      17    35.00       2190.    
     MULTIPLE LAYERS AND PROPORTIONS :    1, 0.60       2, 0.40
  2250 2343-22-24      22    24.00       2178.    
     MULTIPLE LAYERS AND PROPORTIONS :    1, 0.60       2, 0.40
  2251 2343-61-21      61    21.00       2153.    
     MULTIPLE LAYERS AND PROPORTIONS :    1, 0.60       2, 0.40
  2252 2427-42-363     42    363.0       2149.    
     MULTIPLE LAYERS AND PROPORTIONS :    1, 0.33       2, 0.67
  2253 2427-48-337     48    337.0       2143.    
     MULTIPLE LAYERS AND PROPORTIONS :    1, 0.33       2, 0.67
  2254 2427-61-20      61    20.00       2124.    
     MULTIPLE LAYERS AND PROPORTIONS :    1, 0.33       2, 0.67
  2255 2427-66-31      66    31.00       2109.    
     MULTIPLE LAYERS AND PROPORTIONS :    1, 0.33       2, 0.67
  2256 2418-10-262     10    262.0       2219.    
  2257 2408-10-262     10    262.0       2234.    
  2258 2431-7-316       7    316.0       2228.    
  2259 2431-12-38      12    38.00       2209.    
  2260 2446-22-25      22    25.00       2182.    
     MULTIPLE LAYERS AND PROPORTIONS :    1, 0.60       2, 0.40
  2261 2447-7-32        7    32.00       2226.    
  2262 2432-7-316       7    316.0       2220.    
  2263 2432-12-33      12    33.00       2203.    
  2264 2432-22-1       22    1.000       2179.    
  2265 2432-42-363     42    363.0       2152.    
  2266 2405-16-293     16    293.0       2215.    
  2267 2383-12-50      12    50.00       2224.    
  2268 2383-17-24      17    24.00       2210.    
  2269 2383-22-24      22    24.00       2199.    
  2270 2383-27-11      27    11.00       2194.    
  2271 2383-32-48      32    48.00       2181.    
  2272 2387-61-20      61    20.00       2131.    
     MULTIPLE LAYERS AND PROPORTIONS :    1, 0.18       2, 0.82
  2273 2387-66-28      66    28.00       2117.    
     MULTIPLE LAYERS AND PROPORTIONS :    1, 0.18       2, 0.82
  2274 2387-71-54      71    54.00       2115.    
     MULTIPLE LAYERS AND PROPORTIONS :    1, 0.18       2, 0.82
  2275 2372-27-47      27    47.00       2181.    
  2276 2372-42-363     42    363.0       2156.    
  2277 2372-56-19      56    19.00       2142.    
  2278 2372-71-54      71    54.00       2109.    
  2279 2332-61-20      61    20.00       2135.    
     MULTIPLE LAYERS AND PROPORTIONS :    1, 0.18       2, 0.82
  2280 2332-66-28      66    28.00       2141.    
     MULTIPLE LAYERS AND PROPORTIONS :    1, 0.18       2, 0.82
  2281 2332-71-54      71    54.00       2112.    
     MULTIPLE LAYERS AND PROPORTIONS :    1, 0.18       2, 0.82
  2282 2437-22-24      22    24.00       2213.    
  2283 2437-27-15      27    15.00       2208.    
  2284 2437-32-48      32    48.00       2196.    
  2285 2438-12-306     12    306.0       2233.    
  2286 2438-16-298     16    298.0       2223.    
  2287 2430-42-363     42    363.0       2158.    
     MULTIPLE LAYERS AND PROPORTIONS :    1, 0.28       2, 0.72
  2288 2430-48-337     48    337.0       2145.    
     MULTIPLE LAYERS AND PROPORTIONS :    1, 0.28       2, 0.72
  2289 2430-56-19      56    19.00       2141.    
     MULTIPLE LAYERS AND PROPORTIONS :    1, 0.28       2, 0.72
  2290 2430-66-28      66    28.00       2118.    
     MULTIPLE LAYERS AND PROPORTIONS :    1, 0.28       2, 0.72
  2291 2430-71-54      71    54.00       2126.    
     MULTIPLE LAYERS AND PROPORTIONS :    1, 0.28       2, 0.72
  2292 2444-10-264     10    264.0       2239.    
  2293 2424-10-265     10    265.0       2235.    
  2294 2425-10-265     10    265.0       2237.    
  2295 2414-10-263     10    263.0       2232.    
  2296 2458-42-362     42    362.0       2153.    
     MULTIPLE LAYERS AND PROPORTIONS :    1, 0.19       2, 0.81
  2297 2458-48-362     48    362.0       2143.    
     MULTIPLE LAYERS AND PROPORTIONS :    1, 0.19       2, 0.81
  2298 2458-56-32      56    32.00       2135.    
     MULTIPLE LAYERS AND PROPORTIONS :    1, 0.19       2, 0.81
  2299 2458-61-20      61    20.00       2125.    
     MULTIPLE LAYERS AND PROPORTIONS :    1, 0.19       2, 0.81
  2300 2458-66-49      66    49.00       2112.    
     MULTIPLE LAYERS AND PROPORTIONS :    1, 0.19       2, 0.81
  2301 2458-71-41      71    41.00       2118.    
     MULTIPLE LAYERS AND PROPORTIONS :    1, 0.19       2, 0.81
  2302 2458-71-365     71    365.0       2118.    
     MULTIPLE LAYERS AND PROPORTIONS :    1, 0.19       2, 0.81
  2303 2439-42-363     42    363.0       2156.    
     MULTIPLE LAYERS AND PROPORTIONS :    1, 0.25       2, 0.75
  2304 2439-48-337     48    337.0       2148.    
     MULTIPLE LAYERS AND PROPORTIONS :    1, 0.25       2, 0.75
  2305 2439-56-19      56    19.00       2143.    
     MULTIPLE LAYERS AND PROPORTIONS :    1, 0.25       2, 0.75
  2306 2439-61-20      61    20.00       2130.    
     MULTIPLE LAYERS AND PROPORTIONS :    1, 0.25       2, 0.75
  2307 2439-66-31      66    31.00       2114.    
     MULTIPLE LAYERS AND PROPORTIONS :    1, 0.25       2, 0.75
  2308 2415-1-52        1    52.00       2259.    
 Observation within a steady-state time step has been moved to the end of the time step.
  2309 2407-27-47      27    47.00       2201.    
     MULTIPLE LAYERS AND PROPORTIONS :    1, 0.30       2, 0.70
  2310 2407-61-20      61    20.00       2133.    
     MULTIPLE LAYERS AND PROPORTIONS :    1, 0.30       2, 0.70
  2311 2407-66-28      66    28.00       2118.    
     MULTIPLE LAYERS AND PROPORTIONS :    1, 0.30       2, 0.70
  2312 2407-71-54      71    54.00       2127.    
     MULTIPLE LAYERS AND PROPORTIONS :    1, 0.30       2, 0.70
  2313 2402-10-263     10    263.0       2229.    
  2314 2394-56-26      56    26.00       2149.    
  2315 2394-61-61      61    61.00       2142.    
  2316 2394-66-25      66    25.00       2129.    
  2317 2386-60-341     60    341.0       2130.    
  2318 2386-66-49      66    49.00       2121.    
  2319 2386-71-40      71    40.00       2124.    
  2320 2386-71-365     71    365.0       2125.    
  2321 2453-27-47      27    47.00       2278.    
  2322 2413-2-121       2    121.0       2301.    
  2323 2412-12-304     12    304.0       2252.    
     MULTIPLE LAYERS AND PROPORTIONS :    1, 0.97       2, 0.03
  2324 2412-16-298     16    298.0       2240.    
     MULTIPLE LAYERS AND PROPORTIONS :    1, 0.97       2, 0.03
  2325 2412-16-364     16    364.0       2242.    
     MULTIPLE LAYERS AND PROPORTIONS :    1, 0.97       2, 0.03
  2326 2398-1-357       1    357.0       2279.    
 Observation within a steady-state time step has been moved to the end of the time step.
  2327 2398-7-2         7    2.000       2288.    
  2328 2395-42-363     42    363.0       2217.    
     MULTIPLE LAYERS AND PROPORTIONS :    1, 0.70       2, 0.30
  2329 2395-48-337     48    337.0       2208.    
     MULTIPLE LAYERS AND PROPORTIONS :    1, 0.70       2, 0.30
  2330 2385-42-363     42    363.0       2211.    
     MULTIPLE LAYERS AND PROPORTIONS :    1, 0.68       2, 0.32
  2331 2385-48-362     48    362.0       2200.    
     MULTIPLE LAYERS AND PROPORTIONS :    1, 0.68       2, 0.32
  2332 2385-55-346     55    346.0       2189.    
     MULTIPLE LAYERS AND PROPORTIONS :    1, 0.68       2, 0.32
  2333 2385-61-31      61    31.00       2180.    
     MULTIPLE LAYERS AND PROPORTIONS :    1, 0.68       2, 0.32
  2334 2385-66-1       66    1.000       2161.    
     MULTIPLE LAYERS AND PROPORTIONS :    1, 0.68       2, 0.32
  2335 2385-71-41      71    41.00       2161.    
     MULTIPLE LAYERS AND PROPORTIONS :    1, 0.68       2, 0.32
  2336 2385-71-365     71    365.0       2167.    
     MULTIPLE LAYERS AND PROPORTIONS :    1, 0.68       2, 0.32
  2337 2282-12-46      12    46.00       2278.    
  2338 2282-17-24      17    24.00       2263.    
  2339 2282-22-24      22    24.00       2258.    
  2340 2282-32-48      32    48.00       2238.    
  2341 2326-26-293     26    293.0       2237.    
     MULTIPLE LAYERS AND PROPORTIONS :    1, 0.30       2, 0.58       3, 0.12
  2342 2326-42-363     42    363.0       2208.    
     MULTIPLE LAYERS AND PROPORTIONS :    1, 0.30       2, 0.58       3, 0.12
  2343 2326-48-362     48    362.0       2194.    
     MULTIPLE LAYERS AND PROPORTIONS :    1, 0.30       2, 0.58       3, 0.12
  2344 2326-56-33      56    33.00       2168.    
     MULTIPLE LAYERS AND PROPORTIONS :    1, 0.30       2, 0.58       3, 0.12
  2345 2326-61-41      61    41.00       2167.    
     MULTIPLE LAYERS AND PROPORTIONS :    1, 0.30       2, 0.58       3, 0.12
  2346 2326-66-45      66    45.00       2152.    
     MULTIPLE LAYERS AND PROPORTIONS :    1, 0.30       2, 0.58       3, 0.12
  2347 2326-71-41      71    41.00       2156.    
     MULTIPLE LAYERS AND PROPORTIONS :    1, 0.30       2, 0.58       3, 0.12
  2348 2326-71-365     71    365.0       2160.    
     MULTIPLE LAYERS AND PROPORTIONS :    1, 0.30       2, 0.58       3, 0.12
  2349 2260-56-26      56    26.00       2172.    
  2350 2260-61-61      61    61.00       2161.    
  2351 2260-66-25      66    25.00       2147.    
  2352 2260-71-61      71    61.00       2152.    
  2353 2202-71-61      71    61.00       2133.    
  2354 2127-42-335     42    335.0       2192.    
     MULTIPLE LAYERS AND PROPORTIONS :    1, 0.59       2, 0.41
  2355 2283-7-311       7    311.0       2250.    
     MULTIPLE LAYERS AND PROPORTIONS :    1, 0.98       2, 0.02
  2356 2283-17-24      17    24.00       2219.    
     MULTIPLE LAYERS AND PROPORTIONS :    1, 0.98       2, 0.02
  2357 2283-22-24      22    24.00       2212.    
     MULTIPLE LAYERS AND PROPORTIONS :    1, 0.98       2, 0.02
  2358 2283-27-47      27    47.00       2202.    
     MULTIPLE LAYERS AND PROPORTIONS :    1, 0.98       2, 0.02
  2359 2283-32-48      32    48.00       2187.    
     MULTIPLE LAYERS AND PROPORTIONS :    1, 0.98       2, 0.02
  2360 2283-35-15      35    15.00       2180.    
     MULTIPLE LAYERS AND PROPORTIONS :    1, 0.98       2, 0.02
  2361 2291-37-32      37    32.00       2177.    
     MULTIPLE LAYERS AND PROPORTIONS :    1, 0.31       2, 0.69
  2362 2291-48-338     48    338.0       2156.    
     MULTIPLE LAYERS AND PROPORTIONS :    1, 0.31       2, 0.69
  2363 2291-60-321     60    321.0       2133.    
     MULTIPLE LAYERS AND PROPORTIONS :    1, 0.31       2, 0.69
  2364 2291-71-13      71    13.00       2129.    
     MULTIPLE LAYERS AND PROPORTIONS :    1, 0.31       2, 0.69
  2365 2291-71-365     71    365.0       2130.    
     MULTIPLE LAYERS AND PROPORTIONS :    1, 0.31       2, 0.69
  2366 2304-7-311       7    311.0       2243.    
  2367 2304-12-38      12    38.00       2229.    
  2368 2304-17-3       17    3.000       2211.    
  2369 2304-22-24      22    24.00       2202.    
  2370 2304-27-11      27    11.00       2197.    
  2371 2237-7-79        7    79.00       2255.    
  2372 2237-12-38      12    38.00       2241.    
  2373 2237-17-24      17    24.00       2224.    
  2374 2237-22-24      22    24.00       2217.    
  2375 2237-27-16      27    16.00       2200.    
  2376 2218-56-34      56    34.00       2138.    
  2377 2218-66-59      66    59.00       2128.    
  2378 2218-71-54      71    54.00       2128.    
  2379 2218-71-365     71    365.0       2128.    
  2380 2212-26-349     26    349.0       2217.    
     MULTIPLE LAYERS AND PROPORTIONS :    1, 0.13       2, 0.87
  2381 2212-42-362     42    362.0       2184.    
     MULTIPLE LAYERS AND PROPORTIONS :    1, 0.13       2, 0.87
  2382 2212-61-20      61    20.00       2151.    
     MULTIPLE LAYERS AND PROPORTIONS :    1, 0.13       2, 0.87
  2383 2212-66-59      66    59.00       2145.    
     MULTIPLE LAYERS AND PROPORTIONS :    1, 0.13       2, 0.87
  2384 2212-71-54      71    54.00       2148.    
     MULTIPLE LAYERS AND PROPORTIONS :    1, 0.13       2, 0.87
  2385 2212-71-365     71    365.0       2148.    
     MULTIPLE LAYERS AND PROPORTIONS :    1, 0.13       2, 0.87
  2386 2213-56-34      56    34.00       2137.    
  2387 2213-66-59      66    59.00       2132.    
  2388 2213-71-54      71    54.00       2133.    
  2389 2213-71-365     71    365.0       2133.    
  2390 2177-42-363     42    363.0       2166.    
     MULTIPLE LAYERS AND PROPORTIONS :    1, 0.62       2, 0.38
  2391 2177-48-337     48    337.0       2168.    
  2392 2177-56-19      56    19.00       2145.    
  2393 2177-66-31      66    31.00       2130.    
  2394 2177-71-54      71    54.00       2106.    
  2395 2175-6-283       6    283.0       2262.    
  2396 2175-12-51      12    51.00       2240.    
  2397 2175-17-24      17    24.00       2228.    
  2398 2175-22-24      22    24.00       2220.    
  2399 2175-27-47      27    47.00       2202.    
  2400 2176-56-34      56    34.00       2142.    
  2401 2176-66-59      66    59.00       2132.    
  2402 2176-71-54      71    54.00       2133.    
  2403 2176-71-365     71    365.0       2133.    
  2404 2154-56-19      56    19.00       2146.    
     MULTIPLE LAYERS AND PROPORTIONS :    2, 0.39       3, 0.61
  2405 2154-61-20      61    20.00       2142.    
     MULTIPLE LAYERS AND PROPORTIONS :    2, 0.39       3, 0.61
  2406 2154-66-28      66    28.00       2135.    
     MULTIPLE LAYERS AND PROPORTIONS :    2, 0.39       3, 0.61
  2407 2154-71-54      71    54.00       2139.    
     MULTIPLE LAYERS AND PROPORTIONS :    2, 0.39       3, 0.61
  2408 2232-56-26      56    26.00       2147.    
  2409 2232-61-20      61    20.00       2140.    
  2410 2232-66-25      66    25.00       2134.    
  2411 2232-71-53      71    53.00       2137.    
  2412 2211-56-26      56    26.00       2149.    
  2413 2211-61-20      61    20.00       2141.    
  2414 2211-66-25      66    25.00       2137.    
  2415 2211-71-53      71    53.00       2141.    
  2416 2233-56-26      56    26.00       2143.    
  2417 2233-61-20      61    20.00       2139.    
  2418 2170-56-26      56    26.00       2146.    
  2419 2170-66-25      66    25.00       2135.    
  2420 2131-12-290     12    290.0       2246.    
  2421 2131-56-26      56    26.00       2155.    
  2422 2131-61-61      61    61.00       2150.    
  2423 2131-66-25      66    25.00       2143.    
  2424 2131-71-53      71    53.00       2148.    
  2425 2137-42-363     42    363.0       2174.    
     MULTIPLE LAYERS AND PROPORTIONS :    2, 0.99       3, 0.01
  2426 2137-48-338     48    338.0       2172.    
     MULTIPLE LAYERS AND PROPORTIONS :    2, 0.99       3, 0.01
  2427 2137-56-24      56    24.00       2171.    
     MULTIPLE LAYERS AND PROPORTIONS :    2, 0.99       3, 0.01
  2428 2137-66-19      66    19.00       2140.    
     MULTIPLE LAYERS AND PROPORTIONS :    2, 0.99       3, 0.01
  2429 2137-71-60      71    60.00       2138.    
     MULTIPLE LAYERS AND PROPORTIONS :    2, 0.99       3, 0.01
  2430 2289-11-38      11    38.00       2218.    
  2431 2289-17-33      17    33.00       2195.    
  2432 2289-22-24      22    24.00       2184.    
  2433 2289-32-32      32    32.00       2180.    
  2434 2241-10-33      10    33.00       2227.    
  2435 2241-17-33      17    33.00       2199.    
  2436 2241-22-24      22    24.00       2189.    
  2437 2241-42-363     42    363.0       2164.    
  2438 2241-48-334     48    334.0       2158.    
  2439 2241-56-26      56    26.00       2149.    
  2440 2241-61-21      61    21.00       2141.    
  2441 2236-1-357       1    357.0       2246.    
 Observation within a steady-state time step has been moved to the end of the time step.
  2442 2236-6-341       6    341.0       2242.    
  2443 2236-12-59      12    59.00       2219.    
  2444 2236-16-313     16    313.0       2206.    
  2445 2236-22-32      22    32.00       2193.    
  2446 2327-71-365     71    365.0       2124.    
  2447 2306-71-54      71    54.00       2114.    
  2448 2306-71-365     71    365.0       2108.    
  2449 2264-56-38      56    38.00       2145.    
  2450 2264-66-48      66    48.00       2132.    
  2451 2264-71-5       71    5.000       2111.    
  2452 2264-71-365     71    365.0       2111.    
  2453 2307-71-54      71    54.00       2110.    
  2454 2307-71-365     71    365.0       2102.    
  2455 2292-56-38      56    38.00       2153.    
  2456 2292-66-42      66    42.00       2134.    
  2457 2293-56-38      56    38.00       2152.    
  2458 2293-66-48      66    48.00       2131.    
  2459 2293-71-12      71    12.00       2097.    
  2460 2293-71-365     71    365.0       2111.    
  2461 2272-55-346     55    346.0       2143.    
  2462 2272-71-54      71    54.00       2109.    
  2463 2272-71-365     71    365.0       2100.    
  2464 2268-66-3       66    3.000       2122.    
  2465 2268-71-365     71    365.0       2107.    
  2466 2242-56-38      56    38.00       2144.    
  2467 2242-66-48      66    48.00       2122.    
  2468 2242-71-365     71    365.0       2100.    
  2469 2257-56-38      56    38.00       2149.    
  2470 2257-66-48      66    48.00       2135.    
  2471 2258-56-38      56    38.00       2152.    
  2472 2258-66-48      66    48.00       2138.    
  2473 2187-42-362     42    362.0       2156.    
  2474 2187-48-336     48    336.0       2152.    
  2475 2187-56-5       56    5.000       2143.    
  2476 2187-61-6       61    6.000       2137.    
  2477 2187-66-48      66    48.00       2121.    
  2478 2187-71-54      71    54.00       2107.    
  2479 2187-71-349     71    349.0       2100.    
  2480 2234-56-38      56    38.00       2152.    
  2481 2234-66-48      66    48.00       2126.    
  2482 2226-66-48      66    48.00       2127.    
  2483 2155-56-38      56    38.00       2153.    
  2484 2155-66-48      66    48.00       2127.    
  2485 2333-56-38      56    38.00       2142.    
  2486 2333-66-48      66    48.00       2117.    
  2487 2308-56-38      56    38.00       2143.    
  2488 2308-66-48      66    48.00       2123.    
  2489 2308-71-21      71    21.00       2103.    
  2490 2308-71-365     71    365.0       2104.    
  2491 2329-56-38      56    38.00       2145.    
  2492 2329-66-48      66    48.00       2123.    
  2493 2329-71-12      71    12.00       2098.    
  2494 2329-71-365     71    365.0       2104.    
  2495 2319-66-48      66    48.00       2133.    
  2496 2320-56-38      56    38.00       2146.    
  2497 2320-66-48      66    48.00       2131.    
  2498 2320-71-12      71    12.00       2108.    
  2499 2320-71-365     71    365.0       2112.    
  2500 2299-55-343     55    343.0       2141.    
  2501 2299-71-54      71    54.00       2096.    
  2502 2299-71-365     71    365.0       2096.    
  2503 2274-56-38      56    38.00       2145.    
  2504 2274-71-54      71    54.00       2106.    
  2505 2274-71-365     71    365.0       2098.    
  2506 2294-56-38      56    38.00       2148.    
  2507 2294-66-48      66    48.00       2126.    
  2508 2294-71-12      71    12.00       2100.    
  2509 2294-71-365     71    365.0       2105.    
  2510 2273-56-38      56    38.00       2146.    
  2511 2273-66-48      66    48.00       2124.    
  2512 2273-71-21      71    21.00       2104.    
  2513 2273-71-365     71    365.0       2103.    
  2514 2284-66-42      66    42.00       2108.    
  2515 2167-1-365       1    365.0       2231.    
 Observation within a steady-state time step has been moved to the end of the time step.
  2516 2167-7-310       7    310.0       2218.    
  2517 2167-11-38      11    38.00       2206.    
  2518 2183-12-50      12    50.00       2200.    
  2519 2183-17-34      17    34.00       2181.    
  2520 2183-22-23      22    23.00       2171.    
  2521 2183-32-47      32    47.00       2167.    
  2522 2183-38-32      38    32.00       2162.    
  2523 2168-42-364     42    364.0       2155.    
  2524 2243-42-364     42    364.0       2133.    
     MULTIPLE LAYERS AND PROPORTIONS :    2, 0.93       3, 0.07
  2525 2243-56-25      56    25.00       2126.    
     MULTIPLE LAYERS AND PROPORTIONS :    2, 0.93       3, 0.07
  2526 2243-66-19      66    19.00       2074.    
     MULTIPLE LAYERS AND PROPORTIONS :    2, 0.93       3, 0.07
  2527 2108-66-48      66    48.00       2141.    
  2528 2109-12-50      12    50.00       2233.    
  2529 2109-17-34      17    34.00       2214.    
  2530 2109-22-23      22    23.00       2204.    
  2531 2109-42-362     42    362.0       2172.    
  2532 2109-48-363     48    363.0       2170.    
  2533 2109-55-346     55    346.0       2156.    
  2534 2109-60-323     60    323.0       2151.    
  2535 2109-66-48      66    48.00       2144.    
  2536 2109-71-12      71    12.00       2126.    
  2537 2109-71-349     71    349.0       2126.    
  2538 1991-7-25        7    25.00       2262.    
     MULTIPLE LAYERS AND PROPORTIONS :    1, 0.40       2, 0.60
  2539 1991-12-50      12    50.00       2243.    
     MULTIPLE LAYERS AND PROPORTIONS :    1, 0.40       2, 0.60
  2540 1991-17-34      17    34.00       2224.    
     MULTIPLE LAYERS AND PROPORTIONS :    1, 0.40       2, 0.60
  2541 1991-22-23      22    23.00       2214.    
     MULTIPLE LAYERS AND PROPORTIONS :    1, 0.40       2, 0.60
  2542 1991-27-11      27    11.00       2207.    
     MULTIPLE LAYERS AND PROPORTIONS :    1, 0.40       2, 0.60
  2543 1991-38-32      38    32.00       2199.    
     MULTIPLE LAYERS AND PROPORTIONS :    1, 0.40       2, 0.60
  2544 1991-42-365     42    365.0       2178.    
     MULTIPLE LAYERS AND PROPORTIONS :    1, 0.40       2, 0.60
  2545 1991-48-337     48    337.0       2181.    
  2546 1991-56-25      56    25.00       2168.    
  2547 1991-60-323     60    323.0       2162.    
  2548 2038-12-51      12    51.00       2244.    
  2549 2038-17-24      17    24.00       2232.    
  2550 2038-22-24      22    24.00       2223.    
  2551 2038-56-19      56    19.00       2217.    
  2552 2122-61-21      61    21.00       2149.    
     MULTIPLE LAYERS AND PROPORTIONS :    2, 0.98       3, 0.02
  2553 2075-56-38      56    38.00       2165.    
  2554 2039-61-21      61    21.00       2161.    
     MULTIPLE LAYERS AND PROPORTIONS :    2, 0.92       3, 0.08
  2555 2021-61-20      61    20.00       2161.    
     MULTIPLE LAYERS AND PROPORTIONS :    1, 0.74       2, 0.26
  2556 2020-61-21      61    21.00       2164.    
     MULTIPLE LAYERS AND PROPORTIONS :    1, 0.42       2, 0.58
  2557 1987-66-48      66    48.00       2158.    
  2558 1958-42-362     42    362.0       2187.    
     MULTIPLE LAYERS AND PROPORTIONS :    1, 0.30       2, 0.70
  2559 1958-48-362     48    362.0       2189.    
     MULTIPLE LAYERS AND PROPORTIONS :    1, 0.30       2, 0.70
  2560 1958-55-346     55    346.0       2175.    
     MULTIPLE LAYERS AND PROPORTIONS :    1, 0.30       2, 0.70
  2561 1958-61-20      61    20.00       2168.    
     MULTIPLE LAYERS AND PROPORTIONS :    1, 0.30       2, 0.70
  2562 1958-66-1       66    1.000       2158.    
     MULTIPLE LAYERS AND PROPORTIONS :    1, 0.30       2, 0.70
  2563 1958-71-47      71    47.00       2154.    
     MULTIPLE LAYERS AND PROPORTIONS :    1, 0.30       2, 0.70
  2564 1958-71-349     71    349.0       2153.    
     MULTIPLE LAYERS AND PROPORTIONS :    1, 0.30       2, 0.70
  2565 1952-12-301     12    301.0       2256.    
     MULTIPLE LAYERS AND PROPORTIONS :    1, 0.31       2, 0.69
  2566 1952-17-4       17    4.000       2237.    
     MULTIPLE LAYERS AND PROPORTIONS :    1, 0.31       2, 0.69
  2567 1952-22-32      22    32.00       2234.    
     MULTIPLE LAYERS AND PROPORTIONS :    1, 0.31       2, 0.69
  2568 1952-27-11      27    11.00       2225.    
     MULTIPLE LAYERS AND PROPORTIONS :    1, 0.31       2, 0.69
  2569 2107-56-26      56    26.00       2157.    
     MULTIPLE LAYERS AND PROPORTIONS :    1, 0.15       2, 0.65       3, 0.20
  2570 2107-61-20      61    20.00       2145.    
     MULTIPLE LAYERS AND PROPORTIONS :    1, 0.15       2, 0.65       3, 0.20
  2571 2107-71-53      71    53.00       2148.    
     MULTIPLE LAYERS AND PROPORTIONS :    1, 0.15       2, 0.65       3, 0.20
  2572 2079-7-152       7    152.0       2264.    
  2573 2079-61-20      61    20.00       2145.    
  2574 2057-42-362     42    362.0       2188.    
  2575 2057-48-362     48    362.0       2181.    
  2576 2057-55-346     55    346.0       2150.    
  2577 2057-61-20      61    20.00       2156.    
  2578 2057-65-354     65    354.0       2147.    
  2579 2057-71-56      71    56.00       2152.    
  2580 2057-71-365     71    365.0       2152.    
  2581 2161-6-283       6    283.0       2266.    
  2582 2161-10-283     10    283.0       2246.    
  2583 2161-17-24      17    24.00       2232.    
  2584 2161-22-24      22    24.00       2224.    
  2585 2161-27-47      27    47.00       2212.    
  2586 2161-32-48      32    48.00       2199.    
  2587 2161-38-32      38    32.00       2192.    
  2588 2094-61-20      61    20.00       2148.    
     MULTIPLE LAYERS AND PROPORTIONS :    1, 0.23       2, 0.35       3, 0.42
  2589 2094-66-28      66    28.00       2138.    
     MULTIPLE LAYERS AND PROPORTIONS :    1, 0.23       2, 0.35       3, 0.42
  2590 2094-71-54      71    54.00       2143.    
     MULTIPLE LAYERS AND PROPORTIONS :    1, 0.23       2, 0.35       3, 0.42
  2591 2059-7-311       7    311.0       2263.    
     MULTIPLE LAYERS AND PROPORTIONS :    1, 0.99       2, 0.01
  2592 2059-12-51      12    51.00       2255.    
     MULTIPLE LAYERS AND PROPORTIONS :    1, 0.99       2, 0.01
  2593 2059-17-4       17    4.000       2229.    
     MULTIPLE LAYERS AND PROPORTIONS :    1, 0.99       2, 0.01
  2594 2059-22-24      22    24.00       2220.    
     MULTIPLE LAYERS AND PROPORTIONS :    1, 0.99       2, 0.01
  2595 2059-27-47      27    47.00       2219.    
     MULTIPLE LAYERS AND PROPORTIONS :    1, 0.99       2, 0.01
  2596 2059-61-21      61    21.00       2174.    
     MULTIPLE LAYERS AND PROPORTIONS :    1, 0.99       2, 0.01
  2597 1989-42-365     42    365.0       2190.    
  2598 1989-56-17      56    17.00       2179.    
  2599 1989-61-20      61    20.00       2170.    
  2600 1968-42-365     42    365.0       2192.    
     MULTIPLE LAYERS AND PROPORTIONS :    2, 0.36       3, 0.64
  2601 1968-56-17      56    17.00       2180.    
     MULTIPLE LAYERS AND PROPORTIONS :    2, 0.36       3, 0.64
  2602 1968-61-20      61    20.00       2173.    
     MULTIPLE LAYERS AND PROPORTIONS :    2, 0.36       3, 0.64
  2603 1937-56-17      56    17.00       2189.    
  2604 1937-61-20      61    20.00       2176.    
  2605 1937-66-27      66    27.00       2171.    
  2606 2007-61-21      61    21.00       2165.    
  2607 2007-66-25      66    25.00       2159.    
  2608 1981-61-21      61    21.00       2168.    
     MULTIPLE LAYERS AND PROPORTIONS :    1, 0.21       2, 0.79
  2609 2037-66-32      66    32.00       2145.    
  2610 2106-26-349     26    349.0       2227.    
     MULTIPLE LAYERS AND PROPORTIONS :    2, 0.43       3, 0.57
  2611 2106-32-32      32    32.00       2213.    
     MULTIPLE LAYERS AND PROPORTIONS :    2, 0.43       3, 0.57
  2612 2106-42-362     42    362.0       2192.    
     MULTIPLE LAYERS AND PROPORTIONS :    2, 0.43       3, 0.57
  2613 2106-48-362     48    362.0       2179.    
     MULTIPLE LAYERS AND PROPORTIONS :    2, 0.43       3, 0.57
  2614 2106-56-34      56    34.00       2160.    
     MULTIPLE LAYERS AND PROPORTIONS :    2, 0.43       3, 0.57
  2615 2106-61-41      61    41.00       2151.    
     MULTIPLE LAYERS AND PROPORTIONS :    2, 0.43       3, 0.57
  2616 2106-66-54      66    54.00       2145.    
     MULTIPLE LAYERS AND PROPORTIONS :    2, 0.43       3, 0.57
  2617 2106-71-41      71    41.00       2144.    
     MULTIPLE LAYERS AND PROPORTIONS :    2, 0.43       3, 0.57
  2618 2106-71-365     71    365.0       2148.    
     MULTIPLE LAYERS AND PROPORTIONS :    2, 0.43       3, 0.57
  2619 1951-12-51      12    51.00       2290.    
     MULTIPLE LAYERS AND PROPORTIONS :    1, 0.81       2, 0.19
  2620 1951-17-39      17    39.00       2273.    
     MULTIPLE LAYERS AND PROPORTIONS :    1, 0.81       2, 0.19
  2621 1951-22-28      22    28.00       2266.    
     MULTIPLE LAYERS AND PROPORTIONS :    1, 0.81       2, 0.19
  2622 1951-38-354     38    354.0       2221.    
     MULTIPLE LAYERS AND PROPORTIONS :    1, 0.81       2, 0.19
  2623 1951-42-363     42    363.0       2215.    
     MULTIPLE LAYERS AND PROPORTIONS :    1, 0.81       2, 0.19
  2624 1951-48-362     48    362.0       2201.    
     MULTIPLE LAYERS AND PROPORTIONS :    1, 0.81       2, 0.19
  2625 1951-55-346     55    346.0       2181.    
     MULTIPLE LAYERS AND PROPORTIONS :    1, 0.81       2, 0.19
  2626 1951-61-41      61    41.00       2171.    
     MULTIPLE LAYERS AND PROPORTIONS :    1, 0.81       2, 0.19
  2627 1951-66-49      66    49.00       2160.    
     MULTIPLE LAYERS AND PROPORTIONS :    1, 0.81       2, 0.19
  2628 1951-71-56      71    56.00       2163.    
     MULTIPLE LAYERS AND PROPORTIONS :    1, 0.81       2, 0.19
  2629 1951-71-365     71    365.0       2165.    
     MULTIPLE LAYERS AND PROPORTIONS :    1, 0.81       2, 0.19
  2630 2494-1-365       1    365.0       2306.    
 Observation within a steady-state time step has been moved to the end of the time step.
  2631 2489-22-66      22    66.00       2270.    
     MULTIPLE LAYERS AND PROPORTIONS :    1, 0.61       2, 0.39
  2632 2489-27-87      27    87.00       2267.    
     MULTIPLE LAYERS AND PROPORTIONS :    1, 0.61       2, 0.39
  2633 2489-32-1       32    1.000       2263.    
     MULTIPLE LAYERS AND PROPORTIONS :    1, 0.61       2, 0.39
  2634 2489-33-60      33    60.00       2258.    
     MULTIPLE LAYERS AND PROPORTIONS :    1, 0.61       2, 0.39
  2635 2489-42-363     42    363.0       2252.    
  2636 2489-55-349     55    349.0       2237.    
  2637 2429-61-61      61    61.00       2229.    
  2638 2429-66-25      66    25.00       2207.    
  2639 2429-71-53      71    53.00       2208.    
  2640 2457-22-65      22    65.00       2248.    
     MULTIPLE LAYERS AND PROPORTIONS :    1, 0.51       2, 0.49
  2641 2457-26-341     26    341.0       2237.    
     MULTIPLE LAYERS AND PROPORTIONS :    1, 0.51       2, 0.49
  2642 2457-31-335     31    335.0       2239.    
     MULTIPLE LAYERS AND PROPORTIONS :    1, 0.51       2, 0.49
  2643 2457-33-60      33    60.00       2232.    
     MULTIPLE LAYERS AND PROPORTIONS :    1, 0.51       2, 0.49
  2644 2457-42-363     42    363.0       2227.    
     MULTIPLE LAYERS AND PROPORTIONS :    1, 0.51       2, 0.49
  2645 2457-48-337     48    337.0       2219.    
     MULTIPLE LAYERS AND PROPORTIONS :    1, 0.51       2, 0.49
  2646 2457-56-18      56    18.00       2213.    
     MULTIPLE LAYERS AND PROPORTIONS :    1, 0.51       2, 0.49
  2647 2457-61-47      61    47.00       2207.    
     MULTIPLE LAYERS AND PROPORTIONS :    1, 0.51       2, 0.49
  2648 2457-66-32      66    32.00       2182.    
     MULTIPLE LAYERS AND PROPORTIONS :    1, 0.51       2, 0.49
  2649 2457-71-14      71    14.00       2184.    
     MULTIPLE LAYERS AND PROPORTIONS :    1, 0.51       2, 0.49
  2650 2457-71-42      71    42.00       2182.    
     MULTIPLE LAYERS AND PROPORTIONS :    1, 0.51       2, 0.49
  2651 2457-71-365     71    365.0       2191.    
     MULTIPLE LAYERS AND PROPORTIONS :    1, 0.51       2, 0.49
  2652 2426-61-61      61    61.00       2226.    
  2653 2426-66-25      66    25.00       2191.    
  2654 2378-22-66      22    66.00       2269.    
  2655 2378-26-341     26    341.0       2254.    
  2656 2378-31-335     31    335.0       2251.    
  2657 2377-7-1         7    1.000       2301.    
  2658 2377-12-92      12    92.00       2285.    
  2659 2382-1-365       1    365.0       2301.    
 Observation within a steady-state time step has been moved to the end of the time step.
  2660 2369-16-364     16    364.0       2258.    
  2661 2397-10-255     10    255.0       2291.    
  2662 2381-66-32      66    32.00       2184.    
  2663 2368-56-25      56    25.00       2246.    
  2664 2368-61-48      61    48.00       2216.    
  2665 2364-56-25      56    25.00       2246.    
     MULTIPLE LAYERS AND PROPORTIONS :    1, 0.24       2, 0.76
  2666 2364-61-48      61    48.00       2218.    
     MULTIPLE LAYERS AND PROPORTIONS :    1, 0.24       2, 0.76
  2667 2364-66-24      66    24.00       2182.    
     MULTIPLE LAYERS AND PROPORTIONS :    1, 0.24       2, 0.76
  2668 2364-71-14      71    14.00       2189.    
     MULTIPLE LAYERS AND PROPORTIONS :    1, 0.24       2, 0.76
  2669 2364-71-365     71    365.0       2205.    
     MULTIPLE LAYERS AND PROPORTIONS :    1, 0.24       2, 0.76
  2670 2361-56-25      56    25.00       2233.    
  2671 2361-61-48      61    48.00       2213.    
  2672 2361-66-24      66    24.00       2179.    
  2673 2361-71-14      71    14.00       2186.    
  2674 2361-71-365     71    365.0       2200.    
  2675 2349-42-364     42    364.0       2247.    
     MULTIPLE LAYERS AND PROPORTIONS :    1, 0.35       2, 0.65
  2676 2349-48-341     48    341.0       2231.    
     MULTIPLE LAYERS AND PROPORTIONS :    1, 0.35       2, 0.65
  2677 2349-56-18      56    18.00       2229.    
     MULTIPLE LAYERS AND PROPORTIONS :    1, 0.35       2, 0.65
  2678 2349-61-48      61    48.00       2207.    
     MULTIPLE LAYERS AND PROPORTIONS :    1, 0.35       2, 0.65
  2679 2349-66-24      66    24.00       2174.    
     MULTIPLE LAYERS AND PROPORTIONS :    1, 0.35       2, 0.65
  2680 2349-71-14      71    14.00       2184.    
     MULTIPLE LAYERS AND PROPORTIONS :    1, 0.35       2, 0.65
  2681 2349-71-365     71    365.0       2198.    
     MULTIPLE LAYERS AND PROPORTIONS :    1, 0.35       2, 0.65
  2682 2422-32-60      32    60.00       2288.    
  2683 2422-33-60      33    60.00       2281.    
  2684 2422-42-363     42    363.0       2283.    
  2685 2422-48-357     48    357.0       2271.    
  2686 2422-55-349     55    349.0       2262.    
  2687 2422-61-3       61    3.000       2255.    
  2688 2406-22-65      22    65.00       2281.    
  2689 2396-16-298     16    298.0       2300.    
  2690 2396-22-32      22    32.00       2300.    
  2691 2396-27-10      27    10.00       2326.    
  2692 2401-22-65      22    65.00       2282.    
  2693 2376-26-341     26    341.0       2266.    
     MULTIPLE LAYERS AND PROPORTIONS :    1, 0.53       2, 0.47
  2694 2365-22-65      22    65.00       2290.    
     MULTIPLE LAYERS AND PROPORTIONS :    1, 0.84       2, 0.16
  2695 2365-27-4       27    4.000       2327.    
     MULTIPLE LAYERS AND PROPORTIONS :    1, 0.84       2, 0.16
  2696 2335-56-18      56    18.00       2237.    
     MULTIPLE LAYERS AND PROPORTIONS :    1, 0.48       2, 0.52
  2697 2335-60-322     60    322.0       2219.    
     MULTIPLE LAYERS AND PROPORTIONS :    1, 0.48       2, 0.52
  2698 2335-65-326     65    326.0       2181.    
     MULTIPLE LAYERS AND PROPORTIONS :    1, 0.48       2, 0.52
  2699 2335-71-365     71    365.0       2205.    
     MULTIPLE LAYERS AND PROPORTIONS :    1, 0.48       2, 0.52
  2700 2348-56-18      56    18.00       2235.    
     MULTIPLE LAYERS AND PROPORTIONS :    1, 0.34       2, 0.38       3, 0.28
  2701 2348-61-48      61    48.00       2211.    
     MULTIPLE LAYERS AND PROPORTIONS :    1, 0.34       2, 0.38       3, 0.28
  2702 2348-66-24      66    24.00       2178.    
     MULTIPLE LAYERS AND PROPORTIONS :    1, 0.34       2, 0.38       3, 0.28
  2703 2348-71-365     71    365.0       2205.    
     MULTIPLE LAYERS AND PROPORTIONS :    1, 0.34       2, 0.38       3, 0.28
  2704 2347-42-364     42    364.0       2259.    
  2705 2347-48-337     48    337.0       2252.    
  2706 2347-56-18      56    18.00       2242.    
  2707 2347-61-48      61    48.00       2222.    
  2708 2347-66-24      66    24.00       2187.    
  2709 2380-61-48      61    48.00       2240.    
  2710 2392-61-48      61    48.00       2242.    
  2711 2391-61-48      61    48.00       2240.    
  2712 2391-66-25      66    25.00       2195.    
  2713 2374-66-40      66    40.00       2191.    
  2714 2374-71-365     71    365.0       2221.    
  2715 2354-16-361     16    361.0       2331.    
  2716 2353-48-274     48    274.0       2274.    
  2717 2352-22-65      22    65.00       2336.    
  2718 2351-66-45      66    45.00       2366.    
  2719 2351-71-42      71    42.00       2367.    
  2720 2351-71-365     71    365.0       2368.    
  2721 2341-55-348     55    348.0       2402.    
  2722 2341-66-45      66    45.00       2396.    
  2723 2341-71-42      71    42.00       2399.    
  2724 2341-71-365     71    365.0       2403.    
  2725 2350-42-355     42    355.0       2373.    
  2726 2350-48-355     48    355.0       2372.    
  2727 2350-55-348     55    348.0       2373.    
  2728 2350-61-3       61    3.000       2371.    
  2729 2350-71-42      71    42.00       2367.    
  2730 2350-71-365     71    365.0       2368.    
  2731 2358-48-306     48    306.0       2396.    
  2732 2215-1-357       1    357.0       2435.    
 Observation within a steady-state time step has been moved to the end of the time step.
  2733 2215-6-295       6    295.0       2429.    
  2734 2215-10-349     10    349.0       2430.    
  2735 2215-22-68      22    68.00       2427.    
  2736 2215-31-335     31    335.0       2427.    
  2737 2215-33-1       33    1.000       2433.    
  2738 2215-39-60      39    60.00       2425.    
  2739 2215-42-356     42    356.0       2425.    
  2740 2215-48-336     48    336.0       2428.    
  2741 2164-48-337     48    337.0       2411.    
  2742 2164-56-24      56    24.00       2419.    
  2743 2164-61-54      61    54.00       2410.    
  2744 2164-66-24      66    24.00       2417.    
  2745 2164-71-41      71    41.00       2416.    
  2746 2135-48-337     48    337.0       2421.    
     MULTIPLE LAYERS AND PROPORTIONS :    1, 0.74       2, 0.26
  2747 2135-56-24      56    24.00       2428.    
     MULTIPLE LAYERS AND PROPORTIONS :    1, 0.74       2, 0.26
  2748 2135-61-55      61    55.00       2415.    
     MULTIPLE LAYERS AND PROPORTIONS :    1, 0.74       2, 0.26
  2749 2135-66-26      66    26.00       2427.    
     MULTIPLE LAYERS AND PROPORTIONS :    1, 0.74       2, 0.26
  2750 2135-71-42      71    42.00       2427.    
     MULTIPLE LAYERS AND PROPORTIONS :    1, 0.74       2, 0.26
  2751 2238-56-23      56    23.00       2443.    
  2752 2334-22-67      22    67.00       2386.    
  2753 2334-26-349     26    349.0       2386.    
  2754 2334-33-60      33    60.00       2381.    
  2755 2334-42-363     42    363.0       2387.    
  2756 2334-48-274     48    274.0       2394.    
  2757 2334-55-321     55    321.0       2395.    
  2758 2334-60-319     60    319.0       2396.    
  2759 2334-65-326     65    326.0       2388.    
  2760 2334-71-14      71    14.00       2393.    
  2761 2334-71-42      71    42.00       2391.    
  2762 2334-71-365     71    365.0       2396.    
  2763 2225-55-321     55    321.0       2384.    
  2764 2223-55-279     55    279.0       2360.    
  2765 2223-61-47      61    47.00       2357.    
  2766 2223-66-32      66    32.00       2375.    
  2767 2223-71-14      71    14.00       2337.    
  2768 2223-71-365     71    365.0       2364.    
  2769 2224-55-321     55    321.0       2382.    
  2770 2224-61-47      61    47.00       2358.    
  2771 2224-66-32      66    32.00       2371.    
  2772 2142-48-274     48    274.0       2338.    
  2773 2150-48-306     48    306.0       2340.    
  2774 2150-55-321     55    321.0       2336.    
  2775 2141-48-274     48    274.0       2337.    
  2776 2141-55-321     55    321.0       2328.    
  2777 2141-61-47      61    47.00       2327.    
  2778 2141-71-14      71    14.00       2313.    
  2779 2141-71-365     71    365.0       2336.    
  2780 2140-48-274     48    274.0       2358.    
  2781 2140-55-321     55    321.0       2348.    
  2782 2140-66-18      66    18.00       2338.    
     MULTIPLE LAYERS AND PROPORTIONS :    1, 0.62       2, 0.38
  2783 2209-27-11      27    11.00       2417.    
  2784 2209-31-351     31    351.0       2416.    
  2785 2209-37-343     37    343.0       2408.    
  2786 2208-56-23      56    23.00       2417.    
  2787 2208-60-321     60    321.0       2410.    
  2788 2208-65-299     65    299.0       2408.    
  2789 2208-71-32      71    32.00       2408.    
  2790 2208-71-365     71    365.0       2407.    
  2791 2206-48-274     48    274.0       2414.    
     MULTIPLE LAYERS AND PROPORTIONS :    1, 0.74       2, 0.26
  2792 2206-55-321     55    321.0       2407.    
     MULTIPLE LAYERS AND PROPORTIONS :    1, 0.74       2, 0.26
  2793 2206-61-47      61    47.00       2405.    
     MULTIPLE LAYERS AND PROPORTIONS :    1, 0.74       2, 0.26
  2794 2206-71-14      71    14.00       2394.    
     MULTIPLE LAYERS AND PROPORTIONS :    1, 0.74       2, 0.26
  2795 2206-71-365     71    365.0       2399.    
     MULTIPLE LAYERS AND PROPORTIONS :    1, 0.74       2, 0.26
  2796 2182-55-321     55    321.0       2385.    
  2797 2174-55-279     55    279.0       2360.    
  2798 2174-60-319     60    319.0       2380.    
  2799 2174-65-326     65    326.0       2355.    
  2800 2174-71-14      71    14.00       2338.    
  2801 2174-71-365     71    365.0       2373.    
  2802 2181-55-321     55    321.0       2368.    
  2803 2181-61-47      61    47.00       2366.    
  2804 2139-1-357       1    357.0       2407.    
 Observation within a steady-state time step has been moved to the end of the time step.
  2805 2138-48-274     48    274.0       2392.    
  2806 2138-55-321     55    321.0       2390.    
  2807 2138-61-47      61    47.00       2391.    
  2808 2138-66-24      66    24.00       2397.    
  2809 2138-71-14      71    14.00       2366.    
  2810 2138-71-365     71    365.0       2393.    
  2811 2253-16-361     16    361.0       2366.    
  2812 2251-48-274     48    274.0       2395.    
     MULTIPLE LAYERS AND PROPORTIONS :    1, 0.95       2, 0.05
  2813 2251-55-321     55    321.0       2391.    
     MULTIPLE LAYERS AND PROPORTIONS :    1, 0.95       2, 0.05
  2814 2314-12-116     12    116.0       2371.    
     MULTIPLE LAYERS AND PROPORTIONS :    1, 0.80       2, 0.20
  2815 2314-22-67      22    67.00       2372.    
  2816 2314-33-60      33    60.00       2367.    
  2817 2290-7-322       7    322.0       2357.    
  2818 2290-10-32      10    32.00       2363.    
  2819 2290-42-364     42    364.0       2348.    
  2820 2290-48-355     48    355.0       2356.    
  2821 2290-55-348     55    348.0       2378.    
  2822 2290-65-354     65    354.0       2361.    
  2823 2290-71-42      71    42.00       2379.    
  2824 2290-71-365     71    365.0       2357.    
  2825 2286-42-357     42    357.0       2345.    
     MULTIPLE LAYERS AND PROPORTIONS :    1, 0.50       2, 0.50
  2826 2286-48-355     48    355.0       2344.    
     MULTIPLE LAYERS AND PROPORTIONS :    1, 0.50       2, 0.50
  2827 2286-61-3       61    3.000       2351.    
     MULTIPLE LAYERS AND PROPORTIONS :    1, 0.50       2, 0.50
  2828 2286-66-45      66    45.00       2371.    
     MULTIPLE LAYERS AND PROPORTIONS :    1, 0.50       2, 0.50
  2829 2287-42-357     42    357.0       2358.    
  2830 2287-61-3       61    3.000       2363.    
  2831 2287-71-42      71    42.00       2383.    
  2832 2287-71-365     71    365.0       2360.    
  2833 2278-22-67      22    67.00       2363.    
     MULTIPLE LAYERS AND PROPORTIONS :    1, 0.28       2, 0.72
  2834 2278-26-362     26    362.0       2379.    
     MULTIPLE LAYERS AND PROPORTIONS :    1, 0.28       2, 0.72
  2835 2278-31-335     31    335.0       2357.    
     MULTIPLE LAYERS AND PROPORTIONS :    1, 0.28       2, 0.72
  2836 2278-33-60      33    60.00       2364.    
     MULTIPLE LAYERS AND PROPORTIONS :    1, 0.28       2, 0.72
  2837 2278-48-274     48    274.0       2365.    
     MULTIPLE LAYERS AND PROPORTIONS :    1, 0.28       2, 0.72
  2838 2129-66-40      66    40.00       2194.    
  2839 2129-71-42      71    42.00       2229.    
  2840 2129-71-365     71    365.0       2235.    
  2841 2146-7-1         7    1.000       2375.    
  2842 2146-11-86      11    86.00       2363.    
  2843 2146-22-67      22    67.00       2347.    
  2844 2146-37-263     37    263.0       2287.    
  2845 2147-42-363     42    363.0       2279.    
  2846 2147-48-362     48    362.0       2265.    
  2847 2147-55-349     55    349.0       2260.    
  2848 2145-2-132       2    132.0       2385.    
  2849 2144-2-132       2    132.0       2390.    
  2850 2126-48-274     48    274.0       2297.    
  2851 2126-55-321     55    321.0       2282.    
  2852 2126-61-47      61    47.00       2279.    
  2853 2126-71-14      71    14.00       2274.    
  2854 2126-71-365     71    365.0       2290.    
  2855 2315-10-262     10    262.0       2351.    
  2856 2288-10-262     10    262.0       2361.    
  2857 2248-56-23      56    23.00       2268.    
     MULTIPLE LAYERS AND PROPORTIONS :    1, 0.52       2, 0.48
  2858 2239-16-361     16    361.0       2347.    
  2859 2239-22-32      22    32.00       2337.    
  2860 2239-27-10      27    10.00       2328.    
  2861 2239-56-23      56    23.00       2274.    
  2862 2267-56-25      56    25.00       2257.    
  2863 2255-22-65      22    65.00       2326.    
  2864 2255-32-60      32    60.00       2302.    
  2865 2255-38-60      38    60.00       2294.    
  2866 2240-56-25      56    25.00       2269.    
  2867 2240-66-32      66    32.00       2195.    
  2868 2240-71-54      71    54.00       2245.    
  2869 2114-61-49      61    49.00       2224.    
  2870 2114-66-40      66    40.00       2195.    
  2871 2114-71-42      71    42.00       2225.    
  2872 2114-71-365     71    365.0       2238.    
  2873 2191-56-23      56    23.00       2242.    
  2874 2191-61-61      61    61.00       2224.    
  2875 2191-66-25      66    25.00       2194.    
  2876 2210-48-334     48    334.0       2283.    
  2877 2210-55-321     55    321.0       2270.    
  2878 2210-61-47      61    47.00       2259.    
  2879 2210-66-24      66    24.00       2229.    
  2880 2210-71-42      71    42.00       2225.    
  2881 2210-71-365     71    365.0       2238.    
  2882 2162-48-274     48    274.0       2254.    
  2883 2162-65-354     65    354.0       2184.    
  2884 2162-71-42      71    42.00       2213.    
  2885 2162-71-365     71    365.0       2224.    
  2886 2298-61-48      61    48.00       2210.    
     MULTIPLE LAYERS AND PROPORTIONS :    1, 0.14       2, 0.54       3, 0.32
  2887 2298-66-24      66    24.00       2176.    
     MULTIPLE LAYERS AND PROPORTIONS :    1, 0.14       2, 0.54       3, 0.32
  2888 2298-71-14      71    14.00       2191.    
     MULTIPLE LAYERS AND PROPORTIONS :    1, 0.14       2, 0.54       3, 0.32
  2889 2298-71-365     71    365.0       2205.    
     MULTIPLE LAYERS AND PROPORTIONS :    1, 0.14       2, 0.54       3, 0.32
  2890 2250-22-69      22    69.00       2301.    
  2891 2250-27-61      27    61.00       2307.    
  2892 2227-42-363     42    363.0       2240.    
     MULTIPLE LAYERS AND PROPORTIONS :    1, 0.53       2, 0.27       3, 0.20
  2893 2227-48-365     48    365.0       2217.    
     MULTIPLE LAYERS AND PROPORTIONS :    1, 0.53       2, 0.27       3, 0.20
  2894 2227-55-349     55    349.0       2199.    
     MULTIPLE LAYERS AND PROPORTIONS :    1, 0.53       2, 0.27       3, 0.20
  2895 2227-61-54      61    54.00       2174.    
     MULTIPLE LAYERS AND PROPORTIONS :    1, 0.53       2, 0.27       3, 0.20
  2896 2227-66-45      66    45.00       2151.    
     MULTIPLE LAYERS AND PROPORTIONS :    1, 0.53       2, 0.27       3, 0.20
  2897 2227-71-49      71    49.00       2170.    
     MULTIPLE LAYERS AND PROPORTIONS :    1, 0.53       2, 0.27       3, 0.20
  2898 2227-71-365     71    365.0       2178.    
     MULTIPLE LAYERS AND PROPORTIONS :    1, 0.53       2, 0.28       3, 0.19
  2899 2152-22-68      22    68.00       2316.    
  2900 2263-10-144     10    144.0       2292.    
  2901 2276-22-61      22    61.00       2265.    
     MULTIPLE LAYERS AND PROPORTIONS :    1, 0.88       2, 0.12
  2902 2276-26-301     26    301.0       2254.    
     MULTIPLE LAYERS AND PROPORTIONS :    1, 0.88       2, 0.12
  2903 2276-48-362     48    362.0       2208.    
     MULTIPLE LAYERS AND PROPORTIONS :    1, 0.88       2, 0.12
  2904 2276-55-349     55    349.0       2193.    
     MULTIPLE LAYERS AND PROPORTIONS :    1, 0.88       2, 0.12
  2905 2276-61-33      61    33.00       2176.    
     MULTIPLE LAYERS AND PROPORTIONS :    1, 0.88       2, 0.12
  2906 2276-66-32      66    32.00       2153.    
     MULTIPLE LAYERS AND PROPORTIONS :    1, 0.88       2, 0.12
  2907 2276-71-14      71    14.00       2154.    
     MULTIPLE LAYERS AND PROPORTIONS :    1, 0.88       2, 0.12
  2908 2276-71-41      71    41.00       2163.    
     MULTIPLE LAYERS AND PROPORTIONS :    1, 0.88       2, 0.12
  2909 2276-71-365     71    365.0       2168.    
     MULTIPLE LAYERS AND PROPORTIONS :    1, 0.88       2, 0.12
  2910 2229-61-33      61    33.00       2163.    
  2911 2229-66-32      66    32.00       2144.    
  2912 2229-71-14      71    14.00       2160.    
  2913 2229-71-41      71    41.00       2160.    
  2914 2229-71-365     71    365.0       2165.    
  2915 2235-42-335     42    335.0       2226.    
  2916 2130-8-49        8    49.00       2299.    
  2917 2130-12-58      12    58.00       2285.    
  2918 2130-17-87      17    87.00       2271.    
  2919 2130-22-79      22    79.00       2267.    
  2920 2130-32-60      32    60.00       2246.    
  2921 2130-42-363     42    363.0       2218.    
  2922 2130-48-362     48    362.0       2201.    
  2923 2153-48-362     48    362.0       2195.    
     MULTIPLE LAYERS AND PROPORTIONS :    1, 0.54       2, 0.46
  2924 2153-55-349     55    349.0       2174.    
     MULTIPLE LAYERS AND PROPORTIONS :    1, 0.54       2, 0.46
  2925 2153-61-33      61    33.00       2157.    
     MULTIPLE LAYERS AND PROPORTIONS :    1, 0.54       2, 0.46
  2926 2153-71-41      71    41.00       2153.    
     MULTIPLE LAYERS AND PROPORTIONS :    1, 0.54       2, 0.46
  2927 2153-71-365     71    365.0       2157.    
     MULTIPLE LAYERS AND PROPORTIONS :    1, 0.54       2, 0.46
  2928 2217-66-32      66    32.00       2149.    
  2929 2231-22-65      22    65.00       2279.    
  2930 2231-42-363     42    363.0       2229.    
  2931 2231-48-362     48    362.0       2209.    
  2932 2231-55-349     55    349.0       2193.    
  2933 2231-61-54      61    54.00       2170.    
  2934 2231-66-49      66    49.00       2150.    
  2935 2231-71-41      71    41.00       2166.    
  2936 2231-71-365     71    365.0       2172.    
  2937 2228-42-363     42    363.0       2226.    
     MULTIPLE LAYERS AND PROPORTIONS :    1, 0.54       2, 0.46
  2938 2228-48-362     48    362.0       2207.    
     MULTIPLE LAYERS AND PROPORTIONS :    1, 0.54       2, 0.46
  2939 2228-55-349     55    349.0       2190.    
     MULTIPLE LAYERS AND PROPORTIONS :    1, 0.54       2, 0.46
  2940 2228-61-54      61    54.00       2167.    
     MULTIPLE LAYERS AND PROPORTIONS :    1, 0.54       2, 0.46
  2941 2228-66-49      66    49.00       2146.    
     MULTIPLE LAYERS AND PROPORTIONS :    1, 0.54       2, 0.46
  2942 2228-71-41      71    41.00       2163.    
     MULTIPLE LAYERS AND PROPORTIONS :    1, 0.54       2, 0.46
  2943 2228-71-365     71    365.0       2169.    
     MULTIPLE LAYERS AND PROPORTIONS :    1, 0.54       2, 0.46
  2944 2056-12-58      12    58.00       2310.    
  2945 2056-22-66      22    66.00       2295.    
  2946 2056-27-61      27    61.00       2284.    
  2947 2032-7-32        7    32.00       2315.    
  2948 2032-12-58      12    58.00       2298.    
  2949 2032-32-83      32    83.00       2257.    
  2950 2033-42-363     42    363.0       2223.    
     MULTIPLE LAYERS AND PROPORTIONS :    1, 0.56       2, 0.44
  2951 2033-48-362     48    362.0       2197.    
     MULTIPLE LAYERS AND PROPORTIONS :    1, 0.56       2, 0.44
  2952 2033-56-34      56    34.00       2161.    
     MULTIPLE LAYERS AND PROPORTIONS :    1, 0.56       2, 0.44
  2953 2033-61-56      61    56.00       2153.    
     MULTIPLE LAYERS AND PROPORTIONS :    1, 0.56       2, 0.44
  2954 2033-66-54      66    54.00       2142.    
     MULTIPLE LAYERS AND PROPORTIONS :    1, 0.56       2, 0.44
  2955 2033-71-49      71    49.00       2159.    
     MULTIPLE LAYERS AND PROPORTIONS :    1, 0.56       2, 0.44
  2956 2033-71-365     71    365.0       2161.    
     MULTIPLE LAYERS AND PROPORTIONS :    1, 0.56       2, 0.44
  2957 2000-37-34      37    34.00       2238.    
  2958 2000-55-349     55    349.0       2170.    
  2959 2004-48-357     48    357.0       2201.    
  2960 2004-71-49      71    49.00       2165.    
  2961 2004-71-365     71    365.0       2168.    
  2962 2019-17-82      17    82.00       2303.    
     MULTIPLE LAYERS AND PROPORTIONS :    1, 0.69       2, 0.31
  2963 2019-22-69      22    69.00       2296.    
     MULTIPLE LAYERS AND PROPORTIONS :    1, 0.69       2, 0.31
  2964 2019-42-335     42    335.0       2229.    
     MULTIPLE LAYERS AND PROPORTIONS :    1, 0.69       2, 0.31
  2965 2019-48-365     48    365.0       2203.    
     MULTIPLE LAYERS AND PROPORTIONS :    1, 0.69       2, 0.31
  2966 2019-66-40      66    40.00       2144.    
     MULTIPLE LAYERS AND PROPORTIONS :    1, 0.69       2, 0.31
  2967 2019-71-49      71    49.00       2164.    
     MULTIPLE LAYERS AND PROPORTIONS :    1, 0.69       2, 0.31
  2968 2019-71-365     71    365.0       2169.    
     MULTIPLE LAYERS AND PROPORTIONS :    1, 0.69       2, 0.31
  2969 2015-66-40      66    40.00       2141.    
  2970 2015-71-49      71    49.00       2161.    
  2971 2015-71-365     71    365.0       2166.    
  2972 2023-42-363     42    363.0       2228.    
     MULTIPLE LAYERS AND PROPORTIONS :    1, 0.32       2, 0.57       3, 0.11
  2973 2023-48-365     48    365.0       2202.    
     MULTIPLE LAYERS AND PROPORTIONS :    1, 0.32       2, 0.57       3, 0.11
  2974 2023-55-349     55    349.0       2167.    
     MULTIPLE LAYERS AND PROPORTIONS :    1, 0.32       2, 0.57       3, 0.11
  2975 2023-61-54      61    54.00       2153.    
     MULTIPLE LAYERS AND PROPORTIONS :    1, 0.32       2, 0.57       3, 0.11
  2976 2023-71-49      71    49.00       2161.    
     MULTIPLE LAYERS AND PROPORTIONS :    1, 0.32       2, 0.57       3, 0.11
  2977 2023-71-365     71    365.0       2166.    
     MULTIPLE LAYERS AND PROPORTIONS :    1, 0.32       2, 0.57       3, 0.11
  2978 2060-48-365     48    365.0       2222.    
     MULTIPLE LAYERS AND PROPORTIONS :    1, 0.46       2, 0.54
  2979 2060-55-356     55    356.0       2188.    
     MULTIPLE LAYERS AND PROPORTIONS :    1, 0.46       2, 0.54
  2980 2060-61-54      61    54.00       2164.    
     MULTIPLE LAYERS AND PROPORTIONS :    1, 0.46       2, 0.54
  2981 2060-66-19      66    19.00       2151.    
     MULTIPLE LAYERS AND PROPORTIONS :    1, 0.46       2, 0.54
  2982 2060-71-42      71    42.00       2177.    
     MULTIPLE LAYERS AND PROPORTIONS :    1, 0.46       2, 0.54
  2983 2060-71-365     71    365.0       2185.    
     MULTIPLE LAYERS AND PROPORTIONS :    1, 0.46       2, 0.54
  2984 2115-22-66      22    66.00       2303.    
  2985 2105-42-363     42    363.0       2241.    
     MULTIPLE LAYERS AND PROPORTIONS :    1, 0.49       2, 0.51
  2986 2105-48-362     48    362.0       2214.    
     MULTIPLE LAYERS AND PROPORTIONS :    1, 0.49       2, 0.51
  2987 2105-56-33      56    33.00       2183.    
     MULTIPLE LAYERS AND PROPORTIONS :    1, 0.49       2, 0.51
  2988 2105-61-33      61    33.00       2164.    
     MULTIPLE LAYERS AND PROPORTIONS :    1, 0.49       2, 0.51
  2989 2105-66-32      66    32.00       2144.    
     MULTIPLE LAYERS AND PROPORTIONS :    1, 0.49       2, 0.51
  2990 2105-71-42      71    42.00       2167.    
     MULTIPLE LAYERS AND PROPORTIONS :    1, 0.49       2, 0.51
  2991 2105-71-365     71    365.0       2174.    
     MULTIPLE LAYERS AND PROPORTIONS :    1, 0.49       2, 0.51
  2992 2098-65-354     65    354.0       2136.    
  2993 2098-71-42      71    42.00       2167.    
  2994 2098-71-365     71    365.0       2174.    
  2995 2103-42-363     42    363.0       2240.    
     MULTIPLE LAYERS AND PROPORTIONS :    1, 0.64       2, 0.36
  2996 2103-48-362     48    362.0       2214.    
     MULTIPLE LAYERS AND PROPORTIONS :    1, 0.64       2, 0.36
  2997 2103-61-33      61    33.00       2163.    
     MULTIPLE LAYERS AND PROPORTIONS :    1, 0.64       2, 0.36
  2998 2103-66-32      66    32.00       2143.    
     MULTIPLE LAYERS AND PROPORTIONS :    1, 0.64       2, 0.36
  2999 2103-71-42      71    42.00       2166.    
     MULTIPLE LAYERS AND PROPORTIONS :    1, 0.64       2, 0.36
  3000 2103-71-365     71    365.0       2173.    
     MULTIPLE LAYERS AND PROPORTIONS :    1, 0.64       2, 0.36
  3001 2055-22-66      22    66.00       2304.    
  3002 2055-32-83      32    83.00       2278.    
  3003 2014-12-66      12    66.00       2336.    
  3004 2014-22-69      22    69.00       2316.    
  3005 2014-27-3       27    3.000       2305.    
  3006 2014-42-363     42    363.0       2244.    
  3007 2014-48-357     48    357.0       2217.    
  3008 2014-66-19      66    19.00       2145.    
  3009 2014-71-42      71    42.00       2170.    
  3010 2014-71-365     71    365.0       2177.    
  3011 2013-42-363     42    363.0       2241.    
     MULTIPLE LAYERS AND PROPORTIONS :    1, 0.30       2, 0.70
  3012 2013-48-357     48    357.0       2214.    
     MULTIPLE LAYERS AND PROPORTIONS :    1, 0.30       2, 0.70
  3013 2013-55-350     55    350.0       2174.    
     MULTIPLE LAYERS AND PROPORTIONS :    1, 0.30       2, 0.70
  3014 2013-61-33      61    33.00       2152.    
     MULTIPLE LAYERS AND PROPORTIONS :    1, 0.30       2, 0.70
  3015 2013-66-19      66    19.00       2142.    
     MULTIPLE LAYERS AND PROPORTIONS :    1, 0.30       2, 0.70
  3016 2013-71-42      71    42.00       2167.    
     MULTIPLE LAYERS AND PROPORTIONS :    1, 0.30       2, 0.70
  3017 2013-71-365     71    365.0       2174.    
     MULTIPLE LAYERS AND PROPORTIONS :    1, 0.30       2, 0.70
  3018 1974-22-79      22    79.00       2318.    
  3019 1974-26-307     26    307.0       2301.    
  3020 1974-42-363     42    363.0       2246.    
  3021 1974-48-357     48    357.0       2218.    
  3022 1966-42-363     42    363.0       2245.    
     MULTIPLE LAYERS AND PROPORTIONS :    1, 0.76       2, 0.24
  3023 1966-48-350     48    350.0       2223.    
     MULTIPLE LAYERS AND PROPORTIONS :    1, 0.76       2, 0.24
  3024 1966-55-350     55    350.0       2165.    
     MULTIPLE LAYERS AND PROPORTIONS :    1, 0.76       2, 0.24
  3025 1966-61-33      61    33.00       2154.    
     MULTIPLE LAYERS AND PROPORTIONS :    1, 0.76       2, 0.24
  3026 1966-66-19      66    19.00       2145.    
     MULTIPLE LAYERS AND PROPORTIONS :    1, 0.76       2, 0.24
  3027 1966-71-49      71    49.00       2171.    
     MULTIPLE LAYERS AND PROPORTIONS :    1, 0.76       2, 0.24
  3028 1966-71-365     71    365.0       2177.    
     MULTIPLE LAYERS AND PROPORTIONS :    1, 0.76       2, 0.24
  3029 1972-71-49      71    49.00       2170.    
  3030 1972-71-365     71    365.0       2176.    
  3031 2036-11-305     11    305.0       2344.    
  3032 2035-48-365     48    365.0       2231.    
     MULTIPLE LAYERS AND PROPORTIONS :    1, 0.41       2, 0.44       3, 0.15
  3033 2035-56-18      56    18.00       2185.    
     MULTIPLE LAYERS AND PROPORTIONS :    1, 0.41       2, 0.44       3, 0.15
  3034 2035-61-54      61    54.00       2162.    
     MULTIPLE LAYERS AND PROPORTIONS :    1, 0.41       2, 0.44       3, 0.15
  3035 2035-66-45      66    45.00       2155.    
     MULTIPLE LAYERS AND PROPORTIONS :    1, 0.41       2, 0.44       3, 0.15
  3036 2035-71-42      71    42.00       2184.    
     MULTIPLE LAYERS AND PROPORTIONS :    1, 0.41       2, 0.44       3, 0.15
  3037 2035-71-365     71    365.0       2192.    
     MULTIPLE LAYERS AND PROPORTIONS :    1, 0.41       2, 0.44       3, 0.15
  3038 1999-22-69      22    69.00       2326.    
  3039 1999-26-349     26    349.0       2314.    
  3040 1999-32-73      32    73.00       2299.    
  3041 1999-42-363     42    363.0       2250.    
  3042 1999-48-357     48    357.0       2223.    
  3043 1999-55-353     55    353.0       2185.    
  3044 1999-60-309     60    309.0       2168.    
  3045 1999-66-28      66    28.00       2150.    
  3046 1999-71-42      71    42.00       2176.    
  3047 1999-71-365     71    365.0       2184.    
  3048 1957-12-66      12    66.00       2349.    
  3049 1957-22-79      22    79.00       2326.    
  3050 1957-27-3       27    3.000       2317.    
  3051 1957-32-60      32    60.00       2301.    
  3052 1957-42-363     42    363.0       2251.    
  3053 1957-48-357     48    357.0       2224.    
  3054 1957-55-353     55    353.0       2183.    
  3055 1957-60-306     60    306.0       2159.    
  3056 1957-66-19      66    19.00       2149.    
  3057 1957-71-42      71    42.00       2176.    
  3058 1957-71-365     71    365.0       2183.    
  3059 2125-48-306     48    306.0       2306.    
  3060 2125-55-321     55    321.0       2297.    
  3061 2086-48-274     48    274.0       2286.    
  3062 2086-56-48      56    48.00       2275.    
  3063 2086-61-47      61    47.00       2260.    
  3064 2086-66-26      66    26.00       2236.    
  3065 2086-71-14      71    14.00       2266.    
  3066 2086-71-365     71    365.0       2276.    
  3067 2102-26-349     26    349.0       2337.    
     MULTIPLE LAYERS AND PROPORTIONS :    1, 0.19       2, 0.81
  3068 2102-48-274     48    274.0       2272.    
     MULTIPLE LAYERS AND PROPORTIONS :    1, 0.19       2, 0.81
  3069 2102-55-321     55    321.0       2250.    
     MULTIPLE LAYERS AND PROPORTIONS :    1, 0.19       2, 0.81
  3070 2102-60-319     60    319.0       2236.    
     MULTIPLE LAYERS AND PROPORTIONS :    1, 0.19       2, 0.81
  3071 2102-66-1       66    1.000       2213.    
     MULTIPLE LAYERS AND PROPORTIONS :    1, 0.19       2, 0.81
  3072 2102-71-42      71    42.00       2243.    
     MULTIPLE LAYERS AND PROPORTIONS :    1, 0.19       2, 0.81
  3073 2102-71-365     71    365.0       2253.    
     MULTIPLE LAYERS AND PROPORTIONS :    1, 0.19       2, 0.81
  3074 2054-39-31      39    31.00       2277.    
     MULTIPLE LAYERS AND PROPORTIONS :    1, 0.31       2, 0.69
  3075 2054-48-357     48    357.0       2251.    
     MULTIPLE LAYERS AND PROPORTIONS :    1, 0.31       2, 0.69
  3076 2054-55-349     55    349.0       2217.    
     MULTIPLE LAYERS AND PROPORTIONS :    1, 0.31       2, 0.69
  3077 2054-61-3       61    3.000       2190.    
     MULTIPLE LAYERS AND PROPORTIONS :    1, 0.31       2, 0.69
  3078 2054-66-40      66    40.00       2178.    
     MULTIPLE LAYERS AND PROPORTIONS :    1, 0.31       2, 0.69
  3079 2054-71-42      71    42.00       2206.    
     MULTIPLE LAYERS AND PROPORTIONS :    1, 0.31       2, 0.69
  3080 2054-71-365     71    365.0       2214.    
     MULTIPLE LAYERS AND PROPORTIONS :    1, 0.31       2, 0.69
  3081 2063-22-69      22    69.00       2354.    
  3082 1996-11-86      11    86.00       2369.    
  3083 1997-22-60      22    60.00       2344.    
  3084 1997-32-60      32    60.00       2306.    
  3085 1997-55-349     55    349.0       2199.    
  3086 1997-65-354     65    354.0       2163.    
  3087 1997-71-42      71    42.00       2191.    
  3088 1997-71-365     71    365.0       2199.    
  3089 1949-48-334     48    334.0       2226.    
  3090 1949-56-17      56    17.00       2197.    
  3091 1942-56-17      56    17.00       2198.    
     MULTIPLE LAYERS AND PROPORTIONS :    1, 0.16       2, 0.84
  3092 1942-61-53      61    53.00       2161.    
     MULTIPLE LAYERS AND PROPORTIONS :    1, 0.16       2, 0.84
  3093 1942-66-19      66    19.00       2167.    
     MULTIPLE LAYERS AND PROPORTIONS :    1, 0.16       2, 0.84
  3094 1942-71-42      71    42.00       2192.    
     MULTIPLE LAYERS AND PROPORTIONS :    1, 0.16       2, 0.84
  3095 1942-71-365     71    365.0       2199.    
     MULTIPLE LAYERS AND PROPORTIONS :    1, 0.16       2, 0.84
  3096 1943-33-314     33    314.0       2310.    
  3097 2078-65-355     65    355.0       2293.    
  3098 2078-71-42      71    42.00       2295.    
  3099 2078-71-365     71    365.0       2311.    
  3100 2072-16-364     16    364.0       2386.    
  3101 2072-27-10      27    10.00       2370.    
  3102 2030-42-362     42    362.0       2302.    
     MULTIPLE LAYERS AND PROPORTIONS :    1, 0.56       2, 0.44
  3103 2030-48-357     48    357.0       2279.    
     MULTIPLE LAYERS AND PROPORTIONS :    1, 0.56       2, 0.44
  3104 2030-55-348     55    348.0       2271.    
     MULTIPLE LAYERS AND PROPORTIONS :    1, 0.56       2, 0.44
  3105 2030-61-3       61    3.000       2261.    
     MULTIPLE LAYERS AND PROPORTIONS :    1, 0.56       2, 0.44
  3106 2030-65-355     65    355.0       2258.    
     MULTIPLE LAYERS AND PROPORTIONS :    1, 0.56       2, 0.44
  3107 2030-71-42      71    42.00       2270.    
     MULTIPLE LAYERS AND PROPORTIONS :    1, 0.56       2, 0.44
  3108 2030-71-365     71    365.0       2276.    
     MULTIPLE LAYERS AND PROPORTIONS :    1, 0.56       2, 0.44
  3109 2082-22-32      22    32.00       2373.    
     MULTIPLE LAYERS AND PROPORTIONS :    1, 0.77       2, 0.23
  3110 2081-8-101       8    101.0       2392.    
  3111 2081-12-109     12    109.0       2384.    
  3112 2081-22-68      22    68.00       2370.    
  3113 2081-42-364     42    364.0       2318.    
  3114 2081-56-18      56    18.00       2301.    
  3115 2081-71-13      71    13.00       2288.    
  3116 2081-71-365     71    365.0       2286.    
  3117 2101-8-51        8    51.00       2389.    
  3118 2101-11-86      11    86.00       2381.    
  3119 2101-22-32      22    32.00       2365.    
  3120 2101-27-10      27    10.00       2363.    
  3121 1986-27-81      27    81.00       2345.    
     MULTIPLE LAYERS AND PROPORTIONS :    1, 0.59       2, 0.41
  3122 1986-42-362     42    362.0       2280.    
     MULTIPLE LAYERS AND PROPORTIONS :    1, 0.59       2, 0.41
  3123 1986-48-334     48    334.0       2249.    
     MULTIPLE LAYERS AND PROPORTIONS :    1, 0.59       2, 0.41
  3124 1986-55-321     55    321.0       2221.    
     MULTIPLE LAYERS AND PROPORTIONS :    1, 0.59       2, 0.41
  3125 1986-61-47      61    47.00       2189.    
     MULTIPLE LAYERS AND PROPORTIONS :    1, 0.59       2, 0.41
  3126 1986-66-32      66    32.00       2184.    
     MULTIPLE LAYERS AND PROPORTIONS :    1, 0.59       2, 0.41
  3127 1986-71-14      71    14.00       2211.    
     MULTIPLE LAYERS AND PROPORTIONS :    1, 0.59       2, 0.41
  3128 1986-71-42      71    42.00       2210.    
     MULTIPLE LAYERS AND PROPORTIONS :    1, 0.59       2, 0.41
  3129 1986-71-365     71    365.0       2216.    
     MULTIPLE LAYERS AND PROPORTIONS :    1, 0.59       2, 0.41
  3130 1956-32-83      32    83.00       2331.    
  3131 1956-37-34      37    34.00       2320.    
  3132 1948-48-274     48    274.0       2256.    
     MULTIPLE LAYERS AND PROPORTIONS :    1, 0.38       2, 0.62
  3133 2117-8-182       8    182.0       2421.    
  3134 2093-66-26      66    26.00       2423.    
     MULTIPLE LAYERS AND PROPORTIONS :    1, 0.55       2, 0.45
  3135 2071-16-364     16    364.0       2400.    
  3136 2053-56-33      56    33.00       2294.    
  3137 2053-65-355     65    355.0       2269.    
  3138 2053-71-43      71    43.00       2283.    
  3139 2053-71-365     71    365.0       2293.    
  3140 2046-61-3       61    3.000       2256.    
  3141 2046-65-355     65    355.0       2242.    
  3142 2046-71-49      71    49.00       2264.    
  3143 2046-71-365     71    365.0       2270.    
  3144 2029-66-45      66    45.00       2227.    
  3145 2029-71-43      71    43.00       2250.    
  3146 2029-71-365     71    365.0       2255.    
  3147 2026-71-43      71    43.00       2248.    
  3148 2026-71-365     71    365.0       2253.    
  3149 2028-71-43      71    43.00       2251.    
     MULTIPLE LAYERS AND PROPORTIONS :    1, 0.85       2, 0.15
  3150 2028-71-365     71    365.0       2256.    
     MULTIPLE LAYERS AND PROPORTIONS :    1, 0.85       2, 0.15
  3151 2048-56-33      56    33.00       2303.    
  3152 2048-65-355     65    355.0       2301.    
  3153 2048-71-49      71    49.00       2296.    
  3154 2048-71-365     71    365.0       2315.    
  3155 2049-55-347     55    347.0       2298.    
  3156 2049-65-355     65    355.0       2294.    
  3157 2049-71-43      71    43.00       2294.    
  3158 2049-71-365     71    365.0       2308.    
  3159 1995-22-69      22    69.00       2376.    
  3160 1995-26-280     26    280.0       2360.    
  3161 1995-42-355     42    355.0       2298.    
  3162 1995-48-357     48    357.0       2272.    
  3163 1995-56-17      56    17.00       2243.    
  3164 1995-61-3       61    3.000       2216.    
  3165 1995-65-355     65    355.0       2209.    
  3166 1995-71-43      71    43.00       2234.    
  3167 1995-71-365     71    365.0       2238.    
  3168 1947-22-79      22    79.00       2368.    
  3169 1947-26-349     26    349.0       2357.    
  3170 1947-32-73      32    73.00       2330.    
  3171 1947-39-31      39    31.00       2300.    
  3172 1947-48-355     48    355.0       2258.    
  3173 1947-55-348     55    348.0       2229.    
  3174 1947-61-3       61    3.000       2202.    
  3175 1947-66-1       66    1.000       2200.    
  3176 1947-71-43      71    43.00       2220.    
  3177 1947-71-365     71    365.0       2224.    
  3178 1985-56-25      56    25.00       2240.    
     MULTIPLE LAYERS AND PROPORTIONS :    1, 0.25       2, 0.75
  3179 1985-66-33      66    33.00       2212.    
     MULTIPLE LAYERS AND PROPORTIONS :    1, 0.25       2, 0.75
  3180 1985-71-42      71    42.00       2234.    
     MULTIPLE LAYERS AND PROPORTIONS :    1, 0.25       2, 0.75
  3181 2017-42-363     42    363.0       2298.    
     MULTIPLE LAYERS AND PROPORTIONS :    1, 0.47       2, 0.53
  3182 2017-48-337     48    337.0       2272.    
     MULTIPLE LAYERS AND PROPORTIONS :    1, 0.47       2, 0.53
  3183 2017-56-24      56    24.00       2232.    
     MULTIPLE LAYERS AND PROPORTIONS :    1, 0.47       2, 0.53
  3184 2017-61-55      61    55.00       2217.    
     MULTIPLE LAYERS AND PROPORTIONS :    1, 0.47       2, 0.53
  3185 2017-66-24      66    24.00       2211.    
     MULTIPLE LAYERS AND PROPORTIONS :    1, 0.47       2, 0.53
  3186 2017-71-42      71    42.00       2234.    
     MULTIPLE LAYERS AND PROPORTIONS :    1, 0.47       2, 0.53
  3187 1941-16-364     16    364.0       2401.    
  3188 2339-1-365       1    365.0       2477.    
 Observation within a steady-state time step has been moved to the end of the time step.
  3189 2339-12-113     12    113.0       2470.    
  3190 2339-22-74      22    74.00       2475.    
  3191 2435-11-80      11    80.00       2546.    
  3192 2435-22-72      22    72.00       2542.    
  3193 2443-48-336     48    336.0       2547.    
  3194 2443-56-20      56    20.00       2553.    
  3195 2443-61-54      61    54.00       2557.    
  3196 2443-66-24      66    24.00       2554.    
  3197 2443-71-42      71    42.00       2576.    
  3198 2379-22-74      22    74.00       2529.    
  3199 2379-42-356     42    356.0       2540.    
  3200 2379-48-336     48    336.0       2543.    
  3201 2379-56-19      56    19.00       2542.    
  3202 2379-61-55      61    55.00       2541.    
  3203 2379-66-27      66    27.00       2540.    
  3204 2379-71-42      71    42.00       2542.    
  3205 2375-42-357     42    357.0       2537.    
  3206 2375-48-350     48    350.0       2537.    
  3207 2375-55-348     55    348.0       2533.    
  3208 2375-61-48      61    48.00       2534.    
  3209 2375-65-350     65    350.0       2532.    
  3210 2375-71-55      71    55.00       2534.    
  3211 2375-71-365     71    365.0       2537.    
  3212 2338-22-74      22    74.00       2520.    
  3213 2338-48-355     48    355.0       2525.    
  3214 2338-56-5       56    5.000       2527.    
  3215 2338-61-48      61    48.00       2518.    
  3216 2338-65-350     65    350.0       2512.    
  3217 2338-71-55      71    55.00       2514.    
  3218 2338-71-365     71    365.0       2515.    
  3219 2205-22-74      22    74.00       2581.    
  3220 2200-22-85      22    85.00       2588.    
  3221 2189-61-55      61    55.00       2613.    
  3222 2173-61-60      61    60.00       2348.    
  3223 2323-22-74      22    74.00       2524.    
  3224 2193-48-336     48    336.0       2511.    
  3225 2193-56-19      56    19.00       2510.    
  3226 2193-61-55      61    55.00       2497.    
  3227 2193-66-27      66    27.00       2479.    
  3228 2193-71-42      71    42.00       2474.    
  3229 2100-12-113     12    113.0       2520.    
  3230 2100-22-75      22    75.00       2520.    
  3231 2100-42-357     42    357.0       2510.    
  3232 2100-48-336     48    336.0       2507.    
  3233 2100-55-347     55    347.0       2504.    
  3234 2100-61-48      61    48.00       2491.    
  3235 2100-65-356     65    356.0       2472.    
  3236 2100-71-42      71    42.00       2467.    
  3237 2100-71-54      71    54.00       2466.    
  3238 2100-71-365     71    365.0       2471.    
  3239 2324-27-11      27    11.00       2564.    
  3240 2324-38-91      38    91.00       2574.    
  3241 2324-42-356     42    356.0       2520.    
  3242 2324-56-20      56    20.00       2523.    
  3243 2324-66-28      66    28.00       2504.    
  3244 2324-71-63      71    63.00       2498.    
  3245 2285-22-74      22    74.00       2515.    
  3246 2285-32-67      32    67.00       2518.    
  3247 2285-38-60      38    60.00       2513.    
  3248 2285-71-63      71    63.00       2515.    
  3249 2119-42-357     42    357.0       2493.    
  3250 2119-48-355     48    355.0       2494.    
  3251 2119-55-348     55    348.0       2502.    
  3252 2119-61-49      61    49.00       2485.    
  3253 2119-71-55      71    55.00       2505.    
  3254 2119-71-365     71    365.0       2487.    
  3255 2184-33-274     33    274.0       2510.    
     MULTIPLE LAYERS AND PROPORTIONS :    1, 0.52       2, 0.48
  3256 2179-33-26      33    26.00       2473.    
  3257 2179-48-337     48    337.0       2408.    
  3258 2179-56-20      56    20.00       2452.    
  3259 2179-66-28      66    28.00       2429.    
  3260 2297-42-355     42    355.0       2484.    
  3261 2297-48-336     48    336.0       2484.    
  3262 2297-56-20      56    20.00       2475.    
  3263 2297-61-54      61    54.00       2466.    
  3264 2297-66-21      66    21.00       2455.    
  3265 2297-71-41      71    41.00       2466.    
  3266 2185-42-357     42    357.0       2455.    
  3267 2185-48-355     48    355.0       2455.    
  3268 2185-55-347     55    347.0       2455.    
  3269 2185-66-45      66    45.00       2454.    
  3270 2185-71-344     71    344.0       2454.    
  3271 2134-16-361     16    361.0       2462.    
  3272 2134-22-32      22    32.00       2459.    
  3273 2134-27-11      27    11.00       2465.    
  3274 2134-48-357     48    357.0       2452.    
  3275 2134-55-347     55    347.0       2458.    
  3276 2134-66-45      66    45.00       2458.    
  3277 2134-71-344     71    344.0       2450.    
  3278 2091-61-55      61    55.00       2458.    
  3279 2091-66-26      66    26.00       2475.    
  3280 2091-71-55      71    55.00       2473.    
  3281 2097-48-337     48    337.0       2447.    
  3282 2097-56-23      56    23.00       2454.    
  3283 2097-66-26      66    26.00       2455.    
  3284 2097-71-55      71    55.00       2455.    
  3285 2068-12-281     12    281.0       2453.    
  3286 2070-48-357     48    357.0       2440.    
  3287 2070-55-348     55    348.0       2456.    
  3288 2070-60-348     60    348.0       2441.    
  3289 2070-66-1       66    1.000       2451.    
  3290 2070-71-365     71    365.0       2433.    
  3291 2027-39-31      39    31.00       2345.    
  3292 2025-66-26      66    26.00       2299.    
  3293 2025-71-55      71    55.00       2304.    
  3294 2010-32-67      32    67.00       2364.    
  3295 1954-32-67      32    67.00       2376.    
  3296 1954-48-355     48    355.0       2305.    
  3297 1954-55-347     55    347.0       2293.    
  3298 1954-66-45      66    45.00       2266.    
  3299 1954-71-344     71    344.0       2283.    
  3300 1963-32-85      32    85.00       2370.    
  3301 1963-42-357     42    357.0       2326.    
  3302 1963-48-355     48    355.0       2304.    
  3303 1963-55-348     55    348.0       2291.    
  3304 1963-61-49      61    49.00       2274.    
  3305 1963-65-356     65    356.0       2263.    
  3306 1963-71-365     71    365.0       2282.    
  3307 2090-27-11      27    11.00       2485.    
  3308 2065-66-45      66    45.00       2433.    
  3309 2065-71-365     71    365.0       2441.    
  3310 2003-71-365     71    365.0       2445.    
  3311 1984-42-355     42    355.0       2470.    
  3312 1984-48-336     48    336.0       2463.    
  3313 2116-65-350     65    350.0       2453.    
  3314 2047-56-19      56    19.00       2480.    
  3315 2047-61-55      61    55.00       2445.    
  3316 2047-66-21      66    21.00       2418.    
  3317 2044-56-19      56    19.00       2475.    
  3318 2044-61-55      61    55.00       2440.    
  3319 2044-66-21      66    21.00       2413.    
  3320 2044-71-41      71    41.00       2429.    
  3321 2018-34-212     34    212.0       2503.    
     MULTIPLE LAYERS AND PROPORTIONS :    1, 0.68       2, 0.32
  3322 2012-1-52        1    52.00       2487.    
 Observation within a steady-state time step has been moved to the end of the time step.
  3323 2012-42-335     42    335.0       2470.    
  3324 2012-48-355     48    355.0       2465.    
  3325 2012-55-348     55    348.0       2470.    
  3326 2012-66-1       66    1.000       2417.    
  3327 2012-71-365     71    365.0       2440.    
  3328 1979-56-23      56    23.00       2478.    
  3329 1979-61-55      61    55.00       2438.    
  3330 2002-16-361     16    361.0       2488.    
  3331 2002-27-12      27    12.00       2490.    
  3332 1961-56-23      56    23.00       2472.    
  3333 1961-66-26      66    26.00       2406.    
  3334 1961-71-41      71    41.00       2420.    
  3335 2080-42-356     42    356.0       2511.    
  3336 2080-48-350     48    350.0       2506.    
  3337 2080-55-347     55    347.0       2504.    
  3338 2080-66-45      66    45.00       2465.    
  3339 2042-55-347     55    347.0       2498.    
  3340 2042-65-356     65    356.0       2451.    
  3341 2042-71-54      71    54.00       2447.    
  3342 2042-71-365     71    365.0       2454.    
  3343 1964-33-38      33    38.00       2501.    
     MULTIPLE LAYERS AND PROPORTIONS :    1, 0.16       2, 0.84
  3344 1976-42-357     42    357.0       2465.    
  3345 1976-48-355     48    355.0       2503.    
  3346 1976-55-348     55    348.0       2474.    
  3347 1976-60-305     60    305.0       2439.    
  3348 1976-66-1       66    1.000       2402.    
  3349 1976-71-55      71    55.00       2414.    
  3350 1976-71-365     71    365.0       2424.    
  3351 1970-42-356     42    356.0       2502.    
  3352 1970-48-336     48    336.0       2495.    
  3353 1970-56-19      56    19.00       2505.    
  3354 2051-43-1       43    1.000       2503.    
  3355 2051-65-356     65    356.0       2450.    
  3356 2051-71-54      71    54.00       2447.    
  3357 2051-71-365     71    365.0       2451.    
  3358 1973-11-214     11    214.0       2529.    
  3359 1969-11-190     11    190.0       2517.    
  3360 1946-66-5       66    5.000       2443.    
  3361 1946-71-22      71    22.00       2447.    
  3362 1946-71-365     71    365.0       2456.    
  3363 1967-27-87      27    87.00       2542.    
     MULTIPLE LAYERS AND PROPORTIONS :    1, 0.12       2, 0.88
  3364 1967-42-356     42    356.0       2502.    
  3365 1967-48-350     48    350.0       2494.    
  3366 1967-55-347     55    347.0       2495.    
  3367 1967-66-5       66    5.000       2444.    
     MULTIPLE LAYERS AND PROPORTIONS :    1, 0.12       2, 0.88
  3368 1967-71-22      71    22.00       2446.    
     MULTIPLE LAYERS AND PROPORTIONS :    1, 0.12       2, 0.88
  3369 1967-71-365     71    365.0       2454.    
     MULTIPLE LAYERS AND PROPORTIONS :    1, 0.12       2, 0.88
  3370 1939-42-356     42    356.0       2504.    
     MULTIPLE LAYERS AND PROPORTIONS :    2, 0.49       3, 0.51
  3371 1939-48-350     48    350.0       2495.    
     MULTIPLE LAYERS AND PROPORTIONS :    2, 0.49       3, 0.51
  3372 1939-55-347     55    347.0       2497.    
     MULTIPLE LAYERS AND PROPORTIONS :    2, 0.49       3, 0.51
  3373 1939-60-356     60    356.0       2480.    
     MULTIPLE LAYERS AND PROPORTIONS :    2, 0.49       3, 0.51
  3374 1939-71-22      71    22.00       2448.    
  3375 1939-71-365     71    365.0       2457.    
  3376 1975-16-361     16    361.0       2581.    
  3377 1975-27-12      27    12.00       2580.    
  3378 1945-56-25      56    25.00       2584.    
  3379 1945-61-54      61    54.00       2569.    
  3380 1945-66-27      66    27.00       2577.    
  3381 1945-71-41      71    41.00       2576.    
  3382 1711-42-352     42    352.0       1846.    
  3383 1711-48-350     48    350.0       1844.    
  3384 1711-55-354     55    354.0       1846.    
  3385 1711-61-21      61    21.00       1848.    
  3386 1711-66-39      66    39.00       1836.    
  3387 1711-71-7       71    7.000       1842.    
  3388 1711-71-365     71    365.0       1843.    
  3389 1555-27-24      27    24.00       1867.    
     MULTIPLE LAYERS AND PROPORTIONS :    2, 0.23       3, 0.77
  3390 1555-31-348     31    348.0       1851.    
     MULTIPLE LAYERS AND PROPORTIONS :    2, 0.23       3, 0.77
  3391 1555-37-341     37    341.0       1811.    
     MULTIPLE LAYERS AND PROPORTIONS :    2, 0.23       3, 0.77
  3392 1555-48-348     48    348.0       1846.    
     MULTIPLE LAYERS AND PROPORTIONS :    2, 0.23       3, 0.77
  3393 1555-56-27      56    27.00       1843.    
     MULTIPLE LAYERS AND PROPORTIONS :    2, 0.23       3, 0.77
  3394 1555-60-319     60    319.0       1847.    
     MULTIPLE LAYERS AND PROPORTIONS :    2, 0.23       3, 0.77
  3395 1555-65-301     65    301.0       1827.    
     MULTIPLE LAYERS AND PROPORTIONS :    2, 0.23       3, 0.77
  3396 1555-71-11      71    11.00       1841.    
     MULTIPLE LAYERS AND PROPORTIONS :    2, 0.23       3, 0.77
  3397 1555-71-365     71    365.0       1845.    
     MULTIPLE LAYERS AND PROPORTIONS :    2, 0.23       3, 0.77
  3398 1428-11-1       11    1.000       1997.    
  3399 1428-17-11      17    11.00       1983.    
  3400 1428-22-12      22    12.00       1969.    
  3401 1428-32-85      32    85.00       1946.    
  3402 1383-1-106       1    106.0       2023.    
 Observation within a steady-state time step has been moved to the end of the time step.
  3403 1383-7-337       7    337.0       2024.    
  3404 1383-12-361     12    361.0       2025.    
  3405 1819-38-13      38    13.00       1884.    
     MULTIPLE LAYERS AND PROPORTIONS :    2, 0.69       3, 0.31
  3406 1819-42-352     42    352.0       1885.    
     MULTIPLE LAYERS AND PROPORTIONS :    2, 0.69       3, 0.31
  3407 1819-55-354     55    354.0       1873.    
     MULTIPLE LAYERS AND PROPORTIONS :    2, 0.69       3, 0.31
  3408 1820-71-12      71    12.00       1977.    
  3409 1820-71-365     71    365.0       1948.    
  3410 1748-17-6       17    6.000       1946.    
     MULTIPLE LAYERS AND PROPORTIONS :    2, 0.51       3, 0.49
  3411 1748-21-335     21    335.0       1923.    
     MULTIPLE LAYERS AND PROPORTIONS :    2, 0.51       3, 0.49
  3412 1748-48-348     48    348.0       1881.    
     MULTIPLE LAYERS AND PROPORTIONS :    2, 0.51       3, 0.49
  3413 1748-60-305     60    305.0       1887.    
     MULTIPLE LAYERS AND PROPORTIONS :    2, 0.51       3, 0.49
  3414 1748-66-1       66    1.000       1901.    
     MULTIPLE LAYERS AND PROPORTIONS :    2, 0.51       3, 0.49
  3415 1748-71-8       71    8.000       1952.    
     MULTIPLE LAYERS AND PROPORTIONS :    2, 0.51       3, 0.49
  3416 1748-71-365     71    365.0       1953.    
     MULTIPLE LAYERS AND PROPORTIONS :    2, 0.51       3, 0.49
  3417 1903-71-365     71    365.0       1926.    
  3418 1862-71-365     71    365.0       1905.    
  3419 1861-65-364     65    364.0       1916.    
  3420 1861-71-365     71    365.0       1952.    
  3421 1833-71-365     71    365.0       1934.    
  3422 1770-71-365     71    365.0       1954.    
  3423 1758-71-365     71    365.0       1924.    
  3424 1709-22-38      22    38.00       1907.    
     MULTIPLE LAYERS AND PROPORTIONS :    2, 0.33       3, 0.67
  3425 1709-42-352     42    352.0       1881.    
     MULTIPLE LAYERS AND PROPORTIONS :    2, 0.33       3, 0.67
  3426 1709-55-354     55    354.0       1871.    
     MULTIPLE LAYERS AND PROPORTIONS :    2, 0.33       3, 0.67
  3427 1709-65-344     65    344.0       1908.    
     MULTIPLE LAYERS AND PROPORTIONS :    2, 0.33       3, 0.67
  3428 1709-71-365     71    365.0       1954.    
     MULTIPLE LAYERS AND PROPORTIONS :    2, 0.33       3, 0.67
  3429 1700-71-365     71    365.0       1954.    
  3430 1828-71-365     71    365.0       1954.    
  3431 1698-71-365     71    365.0       1984.    
  3432 1883-65-336     65    336.0       1858.    
  3433 1883-71-365     71    365.0       1882.    
  3434 1838-71-365     71    365.0       1856.    
  3435 1805-71-365     71    365.0       1842.    
  3436 1702-16-354     16    354.0       1930.    
     MULTIPLE LAYERS AND PROPORTIONS :    2, 0.37       3, 0.63
  3437 1702-42-352     42    352.0       1867.    
     MULTIPLE LAYERS AND PROPORTIONS :    2, 0.37       3, 0.63
  3438 1702-48-349     48    349.0       1865.    
     MULTIPLE LAYERS AND PROPORTIONS :    2, 0.37       3, 0.63
  3439 1702-55-354     55    354.0       1861.    
     MULTIPLE LAYERS AND PROPORTIONS :    2, 0.37       3, 0.63
  3440 1702-61-31      61    31.00       1873.    
     MULTIPLE LAYERS AND PROPORTIONS :    2, 0.37       3, 0.63
  3441 1702-65-344     65    344.0       1835.    
     MULTIPLE LAYERS AND PROPORTIONS :    2, 0.37       3, 0.63
  3442 1702-71-365     71    365.0       1869.    
  3443 1704-71-365     71    365.0       1865.    
  3444 1829-71-365     71    365.0       1888.    
  3445 1710-17-6       17    6.000       1935.    
     MULTIPLE LAYERS AND PROPORTIONS :    2, 0.18       3, 0.82
  3446 1710-42-352     42    352.0       1874.    
     MULTIPLE LAYERS AND PROPORTIONS :    2, 0.18       3, 0.82
  3447 1710-48-349     48    349.0       1871.    
     MULTIPLE LAYERS AND PROPORTIONS :    2, 0.18       3, 0.82
  3448 1710-55-354     55    354.0       1867.    
     MULTIPLE LAYERS AND PROPORTIONS :    2, 0.18       3, 0.82
  3449 1710-61-31      61    31.00       1882.    
     MULTIPLE LAYERS AND PROPORTIONS :    2, 0.18       3, 0.82
  3450 1710-65-344     65    344.0       1849.    
     MULTIPLE LAYERS AND PROPORTIONS :    2, 0.18       3, 0.82
  3451 1710-71-365     71    365.0       1891.    
  3452 1703-71-365     71    365.0       1899.    
  3453 1663-12-305     12    305.0       1964.    
     MULTIPLE LAYERS AND PROPORTIONS :    2, 0.25       3, 0.75
  3454 1663-42-352     42    352.0       1877.    
     MULTIPLE LAYERS AND PROPORTIONS :    2, 0.25       3, 0.75
  3455 1663-48-349     48    349.0       1873.    
     MULTIPLE LAYERS AND PROPORTIONS :    2, 0.25       3, 0.75
  3456 1663-55-354     55    354.0       1869.    
     MULTIPLE LAYERS AND PROPORTIONS :    2, 0.25       3, 0.75
  3457 1663-61-31      61    31.00       1880.    
     MULTIPLE LAYERS AND PROPORTIONS :    2, 0.25       3, 0.75
  3458 1663-65-338     65    338.0       1844.    
     MULTIPLE LAYERS AND PROPORTIONS :    2, 0.25       3, 0.75
  3459 1663-71-365     71    365.0       1891.    
  3460 1667-71-365     71    365.0       1888.    
  3461 1686-71-365     71    365.0       1980.    
  3462 1653-71-365     71    365.0       2007.    
  3463 1634-71-365     71    365.0       1985.    
  3464 1637-71-365     71    365.0       1997.    
  3465 1635-71-365     71    365.0       1936.    
  3466 1584-17-6       17    6.000       1957.    
     MULTIPLE LAYERS AND PROPORTIONS :    2, 0.41       3, 0.59
  3467 1584-22-38      22    38.00       1934.    
     MULTIPLE LAYERS AND PROPORTIONS :    2, 0.41       3, 0.59
  3468 1584-27-27      27    27.00       1919.    
     MULTIPLE LAYERS AND PROPORTIONS :    2, 0.41       3, 0.59
  3469 1584-32-85      32    85.00       1896.    
     MULTIPLE LAYERS AND PROPORTIONS :    2, 0.41       3, 0.59
  3470 1584-37-34      37    34.00       1893.    
     MULTIPLE LAYERS AND PROPORTIONS :    2, 0.41       3, 0.59
  3471 1584-42-352     42    352.0       1904.    
     MULTIPLE LAYERS AND PROPORTIONS :    2, 0.41       3, 0.59
  3472 1584-48-348     48    348.0       1898.    
     MULTIPLE LAYERS AND PROPORTIONS :    2, 0.41       3, 0.59
  3473 1584-55-354     55    354.0       1891.    
     MULTIPLE LAYERS AND PROPORTIONS :    2, 0.41       3, 0.59
  3474 1584-60-323     60    323.0       1899.    
     MULTIPLE LAYERS AND PROPORTIONS :    2, 0.41       3, 0.59
  3475 1584-65-344     65    344.0       1892.    
     MULTIPLE LAYERS AND PROPORTIONS :    2, 0.41       3, 0.59
  3476 1584-71-365     71    365.0       1958.    
     MULTIPLE LAYERS AND PROPORTIONS :    2, 0.41       3, 0.59
  3477 1585-71-365     71    365.0       1953.    
  3478 1592-71-365     71    365.0       1979.    
  3479 1591-71-365     71    365.0       1992.    
  3480 1590-71-365     71    365.0       1994.    
  3481 1650-71-365     71    365.0       1967.    
  3482 1684-48-275     48    275.0       1902.    
  3483 1684-66-20      66    20.00       1899.    
  3484 1685-48-275     48    275.0       1902.    
  3485 1685-66-20      66    20.00       1896.    
  3486 1496-21-355     21    355.0       1982.    
  3487 1496-27-27      27    27.00       1971.    
  3488 1496-32-85      32    85.00       1959.    
  3489 1496-36-91      36    91.00       1953.    
  3490 1496-56-19      56    19.00       1930.    
  3491 1491-56-19      56    19.00       1932.    
  3492 1501-16-309     16    309.0       2004.    
  3493 1497-48-300     48    300.0       1940.    
  3494 1497-55-318     55    318.0       1931.    
  3495 1497-60-313     60    313.0       1916.    
  3496 1497-65-364     65    364.0       1898.    
  3497 1497-71-350     71    350.0       1941.    
  3498 1498-48-300     48    300.0       1941.    
  3499 1498-55-318     55    318.0       1930.    
  3500 1498-60-313     60    313.0       1917.    
  3501 1498-65-364     65    364.0       1898.    
  3502 1498-71-350     71    350.0       1942.    
  3503 1442-36-1       36    1.000       1957.    
     MULTIPLE LAYERS AND PROPORTIONS :    2, 0.09       3, 0.91
  3504 1442-42-349     42    349.0       1941.    
     MULTIPLE LAYERS AND PROPORTIONS :    2, 0.09       3, 0.91
  3505 1442-48-349     48    349.0       1933.    
     MULTIPLE LAYERS AND PROPORTIONS :    2, 0.09       3, 0.91
  3506 1442-55-353     55    353.0       1923.    
     MULTIPLE LAYERS AND PROPORTIONS :    2, 0.09       3, 0.91
  3507 1442-61-21      61    21.00       1907.    
     MULTIPLE LAYERS AND PROPORTIONS :    2, 0.09       3, 0.91
  3508 1473-10-213     10    213.0       2021.    
  3509 1407-22-38      22    38.00       1991.    
     MULTIPLE LAYERS AND PROPORTIONS :    2, 0.83       3, 0.17
  3510 1407-42-349     42    349.0       1957.    
     MULTIPLE LAYERS AND PROPORTIONS :    2, 0.83       3, 0.17
  3511 1407-48-349     48    349.0       1949.    
     MULTIPLE LAYERS AND PROPORTIONS :    2, 0.83       3, 0.17
  3512 1407-55-353     55    353.0       1937.    
     MULTIPLE LAYERS AND PROPORTIONS :    2, 0.83       3, 0.17
  3513 1407-61-21      61    21.00       1916.    
     MULTIPLE LAYERS AND PROPORTIONS :    2, 0.83       3, 0.17
  3514 1407-66-34      66    34.00       1900.    
     MULTIPLE LAYERS AND PROPORTIONS :    2, 0.83       3, 0.17
  3515 1407-71-365     71    365.0       1990.    
     MULTIPLE LAYERS AND PROPORTIONS :    2, 0.83       3, 0.17
  3516 1412-71-365     71    365.0       1993.    
  3517 1393-38-335     38    335.0       1974.    
  3518 1393-42-349     42    349.0       1957.    
  3519 1393-48-349     48    349.0       1950.    
  3520 1393-55-353     55    353.0       1938.    
  3521 1393-71-365     71    365.0       2034.    
  3522 1376-36-78      36    78.00       1988.    
     MULTIPLE LAYERS AND PROPORTIONS :    2, 0.11       3, 0.89
  3523 1376-48-349     48    349.0       1957.    
     MULTIPLE LAYERS AND PROPORTIONS :    2, 0.11       3, 0.89
  3524 1376-61-21      61    21.00       1921.    
     MULTIPLE LAYERS AND PROPORTIONS :    2, 0.11       3, 0.89
  3525 1376-66-34      66    34.00       1905.    
     MULTIPLE LAYERS AND PROPORTIONS :    2, 0.11       3, 0.89
  3526 1376-71-56      71    56.00       1990.    
     MULTIPLE LAYERS AND PROPORTIONS :    2, 0.11       3, 0.89
  3527 1376-71-365     71    365.0       2019.    
  3528 1361-71-362     71    362.0       1995.    
  3529 1362-71-362     71    362.0       1995.    
  3530 1421-71-362     71    362.0       2025.    
  3531 1403-66-34      66    34.00       1900.    
  3532 1403-71-56      71    56.00       1997.    
  3533 1403-71-365     71    365.0       2031.    
  3534 1388-71-362     71    362.0       2044.    
  3535 1364-17-12      17    12.00       2001.    
  3536 1364-38-335     38    335.0       1980.    
  3537 1364-42-349     42    349.0       1961.    
  3538 1364-55-353     55    353.0       1942.    
  3539 1364-66-34      66    34.00       1904.    
  3540 1364-71-365     71    365.0       2054.    
  3541 1365-17-12      17    12.00       2006.    
     MULTIPLE LAYERS AND PROPORTIONS :    2, 0.72       3, 0.28
  3542 1365-22-6       22    6.000       1999.    
     MULTIPLE LAYERS AND PROPORTIONS :    2, 0.72       3, 0.28
  3543 1365-27-27      27    27.00       1992.    
     MULTIPLE LAYERS AND PROPORTIONS :    2, 0.72       3, 0.28
  3544 1365-32-85      32    85.00       1986.    
     MULTIPLE LAYERS AND PROPORTIONS :    2, 0.72       3, 0.28
  3545 1365-37-17      37    17.00       1983.    
     MULTIPLE LAYERS AND PROPORTIONS :    2, 0.72       3, 0.28
  3546 1365-42-349     42    349.0       1965.    
     MULTIPLE LAYERS AND PROPORTIONS :    2, 0.72       3, 0.28
  3547 1365-48-349     48    349.0       1959.    
     MULTIPLE LAYERS AND PROPORTIONS :    2, 0.72       3, 0.28
  3548 1365-55-353     55    353.0       1948.    
     MULTIPLE LAYERS AND PROPORTIONS :    2, 0.72       3, 0.28
  3549 1365-60-364     60    364.0       1925.    
     MULTIPLE LAYERS AND PROPORTIONS :    2, 0.72       3, 0.28
  3550 1365-66-1       66    1.000       1907.    
     MULTIPLE LAYERS AND PROPORTIONS :    2, 0.72       3, 0.28
  3551 1365-71-365     71    365.0       2045.    
     MULTIPLE LAYERS AND PROPORTIONS :    2, 0.72       3, 0.28
  3552 1335-71-362     71    362.0       2054.    
  3553 1313-36-114     36    114.0       1987.    
     MULTIPLE LAYERS AND PROPORTIONS :    2, 0.08       3, 0.92
  3554 1313-42-349     42    349.0       1974.    
     MULTIPLE LAYERS AND PROPORTIONS :    2, 0.08       3, 0.92
  3555 1313-48-349     48    349.0       1966.    
     MULTIPLE LAYERS AND PROPORTIONS :    2, 0.08       3, 0.92
  3556 1313-55-353     55    353.0       1953.    
     MULTIPLE LAYERS AND PROPORTIONS :    2, 0.08       3, 0.92
  3557 1313-61-21      61    21.00       1922.    
     MULTIPLE LAYERS AND PROPORTIONS :    2, 0.08       3, 0.92
  3558 1313-66-13      66    13.00       1906.    
     MULTIPLE LAYERS AND PROPORTIONS :    2, 0.08       3, 0.92
  3559 1266-17-12      17    12.00       2022.    
     MULTIPLE LAYERS AND PROPORTIONS :    2, 0.57       3, 0.43
  3560 1266-38-335     38    335.0       2003.    
     MULTIPLE LAYERS AND PROPORTIONS :    2, 0.57       3, 0.43
  3561 1266-42-349     42    349.0       1987.    
     MULTIPLE LAYERS AND PROPORTIONS :    2, 0.57       3, 0.43
  3562 1266-48-349     48    349.0       1980.    
     MULTIPLE LAYERS AND PROPORTIONS :    2, 0.57       3, 0.43
  3563 1266-56-3       56    3.000       1967.    
     MULTIPLE LAYERS AND PROPORTIONS :    2, 0.57       3, 0.43
  3564 1266-61-21      61    21.00       1938.    
     MULTIPLE LAYERS AND PROPORTIONS :    2, 0.57       3, 0.43
  3565 1266-66-12      66    12.00       1922.    
     MULTIPLE LAYERS AND PROPORTIONS :    2, 0.57       3, 0.43
  3566 1266-71-56      71    56.00       2000.    
     MULTIPLE LAYERS AND PROPORTIONS :    2, 0.57       3, 0.43
  3567 1266-71-365     71    365.0       2050.    
  3568 1258-71-362     71    362.0       2050.    
  3569 1265-17-12      17    12.00       2015.    
     MULTIPLE LAYERS AND PROPORTIONS :    2, 0.42       3, 0.58
  3570 1265-38-335     38    335.0       2003.    
     MULTIPLE LAYERS AND PROPORTIONS :    2, 0.42       3, 0.58
  3571 1265-42-349     42    349.0       1982.    
     MULTIPLE LAYERS AND PROPORTIONS :    2, 0.42       3, 0.58
  3572 1265-48-349     48    349.0       1975.    
     MULTIPLE LAYERS AND PROPORTIONS :    2, 0.42       3, 0.58
  3573 1265-55-353     55    353.0       1961.    
     MULTIPLE LAYERS AND PROPORTIONS :    2, 0.42       3, 0.58
  3574 1265-66-34      66    34.00       1917.    
     MULTIPLE LAYERS AND PROPORTIONS :    2, 0.42       3, 0.58
  3575 1265-71-56      71    56.00       1998.    
     MULTIPLE LAYERS AND PROPORTIONS :    2, 0.42       3, 0.58
  3576 1265-71-365     71    365.0       2040.    
     MULTIPLE LAYERS AND PROPORTIONS :    2, 0.42       3, 0.58
  3577 1336-17-12      17    12.00       2021.    
     MULTIPLE LAYERS AND PROPORTIONS :    2, 0.82       3, 0.18
  3578 1336-38-335     38    335.0       1988.    
     MULTIPLE LAYERS AND PROPORTIONS :    2, 0.82       3, 0.18
  3579 1336-42-349     42    349.0       1974.    
     MULTIPLE LAYERS AND PROPORTIONS :    2, 0.82       3, 0.18
  3580 1336-48-349     48    349.0       1965.    
     MULTIPLE LAYERS AND PROPORTIONS :    2, 0.82       3, 0.18
  3581 1336-55-353     55    353.0       1959.    
     MULTIPLE LAYERS AND PROPORTIONS :    2, 0.82       3, 0.18
  3582 1336-71-40      71    40.00       1955.    
     MULTIPLE LAYERS AND PROPORTIONS :    2, 0.82       3, 0.18
  3583 1336-71-365     71    365.0       1999.    
     MULTIPLE LAYERS AND PROPORTIONS :    2, 0.82       3, 0.18
  3584 1337-42-349     42    349.0       1965.    
     MULTIPLE LAYERS AND PROPORTIONS :    2, 0.78       3, 0.22
  3585 1337-55-353     55    353.0       1947.    
     MULTIPLE LAYERS AND PROPORTIONS :    2, 0.78       3, 0.22
  3586 1337-66-27      66    27.00       1901.    
     MULTIPLE LAYERS AND PROPORTIONS :    2, 0.78       3, 0.22
  3587 1337-71-365     71    365.0       2033.    
     MULTIPLE LAYERS AND PROPORTIONS :    2, 0.78       3, 0.22
  3588 1340-36-38      36    38.00       1989.    
     MULTIPLE LAYERS AND PROPORTIONS :    2, 0.09       3, 0.91
  3589 1340-42-349     42    349.0       1969.    
     MULTIPLE LAYERS AND PROPORTIONS :    2, 0.09       3, 0.91
  3590 1340-48-349     48    349.0       1961.    
     MULTIPLE LAYERS AND PROPORTIONS :    2, 0.09       3, 0.91
  3591 1340-55-353     55    353.0       1948.    
     MULTIPLE LAYERS AND PROPORTIONS :    2, 0.09       3, 0.91
  3592 1340-66-10      66    10.00       1902.    
     MULTIPLE LAYERS AND PROPORTIONS :    2, 0.09       3, 0.91
  3593 1340-71-56      71    56.00       2011.    
     MULTIPLE LAYERS AND PROPORTIONS :    2, 0.09       3, 0.91
  3594 1340-71-365     71    365.0       2033.    
     MULTIPLE LAYERS AND PROPORTIONS :    2, 0.09       3, 0.91
  3595 1264-38-335     38    335.0       2000.    
     MULTIPLE LAYERS AND PROPORTIONS :    2, 0.41       3, 0.59
  3596 1264-42-349     42    349.0       1981.    
     MULTIPLE LAYERS AND PROPORTIONS :    2, 0.41       3, 0.59
  3597 1264-71-70      71    70.00       1982.    
     MULTIPLE LAYERS AND PROPORTIONS :    2, 0.41       3, 0.59
  3598 1264-71-365     71    365.0       2018.    
     MULTIPLE LAYERS AND PROPORTIONS :    2, 0.41       3, 0.59
  3599 1257-66-33      66    33.00       1916.    
  3600 1257-71-56      71    56.00       1959.    
  3601 1257-71-365     71    365.0       1994.    
  3602 1371-56-31      56    31.00       1966.    
  3603 1371-66-56      66    56.00       1937.    
  3604 1371-71-50      71    50.00       1934.    
  3605 1371-71-365     71    365.0       1940.    
  3606 1370-34-198     34    198.0       2015.    
  3607 1370-56-31      56    31.00       1974.    
  3608 1370-66-56      66    56.00       1951.    
  3609 1370-71-50      71    50.00       1943.    
  3610 1370-71-365     71    365.0       1945.    
  3611 1849-12-32      12    32.00       2295.    
     MULTIPLE LAYERS AND PROPORTIONS :    1, 0.73       2, 0.27
  3612 1849-17-34      17    34.00       2282.    
     MULTIPLE LAYERS AND PROPORTIONS :    1, 0.73       2, 0.27
  3613 1849-22-1       22    1.000       2276.    
     MULTIPLE LAYERS AND PROPORTIONS :    1, 0.73       2, 0.27
  3614 1847-48-362     48    362.0       2218.    
  3615 1847-56-34      56    34.00       2197.    
  3616 1847-61-3       61    3.000       2185.    
  3617 1847-66-1       66    1.000       2178.    
  3618 1847-71-56      71    56.00       2177.    
  3619 1847-71-365     71    365.0       2179.    
  3620 1742-1-365       1    365.0       2295.    
 Observation within a steady-state time step has been moved to the end of the time step.
  3621 1741-1-365       1    365.0       2294.    
 Observation within a steady-state time step has been moved to the end of the time step.
  3622 1766-1-365       1    365.0       2333.    
 Observation within a steady-state time step has been moved to the end of the time step.
  3623 1848-56-34      56    34.00       2194.    
  3624 1848-65-336     65    336.0       2176.    
  3625 1848-71-365     71    365.0       2172.    
  3626 1901-2-36        2    36.00       2292.    
  3627 1912-1-365       1    365.0       2284.    
 Observation within a steady-state time step has been moved to the end of the time step.
  3628 1929-1-365       1    365.0       2283.    
 Observation within a steady-state time step has been moved to the end of the time step.
  3629 1902-1-365       1    365.0       2282.    
 Observation within a steady-state time step has been moved to the end of the time step.
  3630 1872-71-68      71    68.00       2168.    
  3631 1872-71-365     71    365.0       2169.    
  3632 1871-56-34      56    34.00       2185.    
  3633 1832-17-37      17    37.00       2250.    
  3634 1832-22-1       22    1.000       2238.    
  3635 1832-32-49      32    49.00       2224.    
  3636 1832-42-362     42    362.0       2198.    
  3637 1832-48-362     48    362.0       2207.    
  3638 1832-56-34      56    34.00       2189.    
  3639 1832-61-3       61    3.000       2179.    
  3640 1832-71-21      71    21.00       2168.    
  3641 1832-71-365     71    365.0       2168.    
  3642 1767-27-40      27    40.00       2263.    
     MULTIPLE LAYERS AND PROPORTIONS :    2, 0.62       3, 0.38
  3643 1767-42-363     42    363.0       2207.    
     MULTIPLE LAYERS AND PROPORTIONS :    2, 0.62       3, 0.38
  3644 1767-56-34      56    34.00       2199.    
     MULTIPLE LAYERS AND PROPORTIONS :    2, 0.62       3, 0.38
  3645 1818-65-336     65    336.0       2171.    
  3646 1804-71-76      71    76.00       2169.    
  3647 1804-71-365     71    365.0       2168.    
  3648 1793-42-362     42    362.0       2203.    
     MULTIPLE LAYERS AND PROPORTIONS :    1, 0.16       2, 0.84
  3649 1793-48-334     48    334.0       2211.    
     MULTIPLE LAYERS AND PROPORTIONS :    1, 0.16       2, 0.84
  3650 1793-56-34      56    34.00       2196.    
     MULTIPLE LAYERS AND PROPORTIONS :    1, 0.16       2, 0.84
  3651 1793-65-336     65    336.0       2179.    
     MULTIPLE LAYERS AND PROPORTIONS :    1, 0.16       2, 0.84
  3652 1793-71-21      71    21.00       2174.    
     MULTIPLE LAYERS AND PROPORTIONS :    1, 0.16       2, 0.84
  3653 1793-71-365     71    365.0       2173.    
     MULTIPLE LAYERS AND PROPORTIONS :    1, 0.16       2, 0.84
  3654 1891-1-365       1    365.0       2278.    
 Observation within a steady-state time step has been moved to the end of the time step.
  3655 1891-11-38      11    38.00       2260.    
  3656 1891-17-37      17    37.00       2237.    
  3657 1690-32-32      32    32.00       2242.    
  3658 1690-34-32      34    32.00       2237.    
  3659 1690-42-362     42    362.0       2216.    
  3660 1690-48-362     48    362.0       2222.    
  3661 1690-56-34      56    34.00       2207.    
  3662 1690-61-3       61    3.000       2187.    
  3663 1690-71-21      71    21.00       2185.    
  3664 1690-71-365     71    365.0       2186.    
  3665 1697-56-34      56    34.00       2201.    
  3666 1697-65-336     65    336.0       2184.    
  3667 1697-71-21      71    21.00       2181.    
  3668 1697-71-365     71    365.0       2181.    
  3669 1638-22-30      22    30.00       2262.    
  3670 1638-27-48      27    48.00       2252.    
  3671 1638-32-49      32    49.00       2248.    
  3672 1638-37-49      37    49.00       2231.    
  3673 1638-42-363     42    363.0       2220.    
  3674 1642-1-365       1    365.0       2316.    
 Observation within a steady-state time step has been moved to the end of the time step.
  3675 1642-8-48        8    48.00       2310.    
  3676 1626-1-365       1    365.0       2317.    
 Observation within a steady-state time step has been moved to the end of the time step.
  3677 1625-26-349     26    349.0       2281.    
     MULTIPLE LAYERS AND PROPORTIONS :    1, 0.28       2, 0.72
  3678 1625-32-49      32    49.00       2274.    
     MULTIPLE LAYERS AND PROPORTIONS :    1, 0.28       2, 0.72
  3679 1625-42-362     42    362.0       2244.    
     MULTIPLE LAYERS AND PROPORTIONS :    1, 0.28       2, 0.72
  3680 1625-48-362     48    362.0       2241.    
     MULTIPLE LAYERS AND PROPORTIONS :    1, 0.28       2, 0.72
  3681 1625-56-34      56    34.00       2226.    
     MULTIPLE LAYERS AND PROPORTIONS :    1, 0.28       2, 0.72
  3682 1625-61-3       61    3.000       2218.    
     MULTIPLE LAYERS AND PROPORTIONS :    1, 0.28       2, 0.72
  3683 1508-12-54      12    54.00       2335.    
     MULTIPLE LAYERS AND PROPORTIONS :    1, 0.89       2, 0.11
  3684 1508-17-33      17    33.00       2334.    
     MULTIPLE LAYERS AND PROPORTIONS :    1, 0.89       2, 0.11
  3685 1508-22-26      22    26.00       2330.    
     MULTIPLE LAYERS AND PROPORTIONS :    1, 0.89       2, 0.11
  3686 1508-27-15      27    15.00       2332.    
     MULTIPLE LAYERS AND PROPORTIONS :    1, 0.89       2, 0.11
  3687 1508-32-49      32    49.00       2321.    
     MULTIPLE LAYERS AND PROPORTIONS :    1, 0.89       2, 0.11
  3688 1508-43-5       43    5.000       2280.    
     MULTIPLE LAYERS AND PROPORTIONS :    1, 0.89       2, 0.11
  3689 1508-48-364     48    364.0       2290.    
     MULTIPLE LAYERS AND PROPORTIONS :    1, 0.89       2, 0.11
  3690 1508-56-34      56    34.00       2275.    
     MULTIPLE LAYERS AND PROPORTIONS :    1, 0.89       2, 0.11
  3691 1508-61-3       61    3.000       2245.    
     MULTIPLE LAYERS AND PROPORTIONS :    1, 0.89       2, 0.11
  3692 1508-71-49      71    49.00       2245.    
     MULTIPLE LAYERS AND PROPORTIONS :    1, 0.89       2, 0.11
  3693 1508-71-365     71    365.0       2249.    
     MULTIPLE LAYERS AND PROPORTIONS :    1, 0.89       2, 0.11
  3694 1479-43-5       43    5.000       2283.    
     MULTIPLE LAYERS AND PROPORTIONS :    1, 0.65       2, 0.35
  3695 1479-48-364     48    364.0       2295.    
     MULTIPLE LAYERS AND PROPORTIONS :    1, 0.65       2, 0.35
  3696 1479-56-34      56    34.00       2280.    
     MULTIPLE LAYERS AND PROPORTIONS :    1, 0.65       2, 0.35
  3697 1479-60-363     60    363.0       2247.    
     MULTIPLE LAYERS AND PROPORTIONS :    1, 0.65       2, 0.35
  3698 1479-71-70      71    70.00       2249.    
     MULTIPLE LAYERS AND PROPORTIONS :    1, 0.65       2, 0.35
  3699 1479-71-365     71    365.0       2251.    
     MULTIPLE LAYERS AND PROPORTIONS :    1, 0.65       2, 0.35
  3700 1462-42-364     42    364.0       2289.    
  3701 1462-48-334     48    334.0       2293.    
  3702 1462-56-16      56    16.00       2279.    
  3703 1468-1-365       1    365.0       2357.    
 Observation within a steady-state time step has been moved to the end of the time step.
  3704 1471-11-278     11    278.0       2346.    
     MULTIPLE LAYERS AND PROPORTIONS :    1, 0.57       2, 0.43
  3705 1471-17-33      17    33.00       2344.    
     MULTIPLE LAYERS AND PROPORTIONS :    1, 0.57       2, 0.43
  3706 1471-22-26      22    26.00       2339.    
     MULTIPLE LAYERS AND PROPORTIONS :    1, 0.57       2, 0.43
  3707 1471-26-349     26    349.0       2333.    
     MULTIPLE LAYERS AND PROPORTIONS :    1, 0.57       2, 0.43
  3708 1471-43-5       43    5.000       2284.    
     MULTIPLE LAYERS AND PROPORTIONS :    1, 0.57       2, 0.43
  3709 1471-48-364     48    364.0       2296.    
  3710 1471-65-336     65    336.0       2241.    
     MULTIPLE LAYERS AND PROPORTIONS :    1, 0.57       2, 0.43
  3711 1471-71-70      71    70.00       2248.    
     MULTIPLE LAYERS AND PROPORTIONS :    1, 0.57       2, 0.43
  3712 1471-71-365     71    365.0       2250.    
     MULTIPLE LAYERS AND PROPORTIONS :    1, 0.57       2, 0.43
  3713 1461-12-54      12    54.00       2348.    
     MULTIPLE LAYERS AND PROPORTIONS :    2, 0.50       3, 0.50
  3714 1461-17-44      17    44.00       2340.    
     MULTIPLE LAYERS AND PROPORTIONS :    2, 0.50       3, 0.50
  3715 1461-22-30      22    30.00       2330.    
     MULTIPLE LAYERS AND PROPORTIONS :    2, 0.50       3, 0.50
  3716 1461-27-59      27    59.00       2319.    
     MULTIPLE LAYERS AND PROPORTIONS :    2, 0.50       3, 0.50
  3717 1461-42-363     42    363.0       2295.    
     MULTIPLE LAYERS AND PROPORTIONS :    2, 0.50       3, 0.50
  3718 1461-48-336     48    336.0       2311.    
     MULTIPLE LAYERS AND PROPORTIONS :    2, 0.50       3, 0.50
  3719 1461-56-34      56    34.00       2299.    
     MULTIPLE LAYERS AND PROPORTIONS :    2, 0.50       3, 0.50
  3720 1461-60-363     60    363.0       2271.    
     MULTIPLE LAYERS AND PROPORTIONS :    2, 0.50       3, 0.50
  3721 1461-66-59      66    59.00       2274.    
     MULTIPLE LAYERS AND PROPORTIONS :    2, 0.50       3, 0.50
  3722 1461-71-70      71    70.00       2283.    
     MULTIPLE LAYERS AND PROPORTIONS :    2, 0.50       3, 0.50
  3723 1461-71-365     71    365.0       2287.    
     MULTIPLE LAYERS AND PROPORTIONS :    2, 0.50       3, 0.50
  3724 1387-42-362     42    362.0       2292.    
     MULTIPLE LAYERS AND PROPORTIONS :    2, 0.46       3, 0.54
  3725 1387-49-2       49    2.000       2310.    
     MULTIPLE LAYERS AND PROPORTIONS :    2, 0.46       3, 0.54
  3726 1387-56-33      56    33.00       2280.    
     MULTIPLE LAYERS AND PROPORTIONS :    2, 0.46       3, 0.54
  3727 1387-60-363     60    363.0       2244.    
     MULTIPLE LAYERS AND PROPORTIONS :    2, 0.46       3, 0.54
  3728 1387-66-59      66    59.00       2240.    
     MULTIPLE LAYERS AND PROPORTIONS :    2, 0.46       3, 0.54
  3729 1387-71-70      71    70.00       2252.    
     MULTIPLE LAYERS AND PROPORTIONS :    2, 0.46       3, 0.54
  3730 1387-71-365     71    365.0       2256.    
     MULTIPLE LAYERS AND PROPORTIONS :    2, 0.46       3, 0.54
  3731 1391-17-41      17    41.00       2368.    
     MULTIPLE LAYERS AND PROPORTIONS :    1, 0.42       2, 0.45       3, 0.13
  3732 1391-22-31      22    31.00       2358.    
     MULTIPLE LAYERS AND PROPORTIONS :    1, 0.42       2, 0.45       3, 0.13
  3733 1391-42-362     42    362.0       2310.    
     MULTIPLE LAYERS AND PROPORTIONS :    2, 0.87       3, 0.13
  3734 1391-48-338     48    338.0       2314.    
     MULTIPLE LAYERS AND PROPORTIONS :    2, 0.87       3, 0.13
  3735 1391-56-16      56    16.00       2281.    
     MULTIPLE LAYERS AND PROPORTIONS :    2, 0.87       3, 0.13
  3736 1391-61-59      61    59.00       2260.    
     MULTIPLE LAYERS AND PROPORTIONS :    2, 0.87       3, 0.13
  3737 1391-66-27      66    27.00       2277.    
     MULTIPLE LAYERS AND PROPORTIONS :    2, 0.87       3, 0.13
  3738 1391-71-56      71    56.00       2263.    
     MULTIPLE LAYERS AND PROPORTIONS :    2, 0.87       3, 0.13
  3739 1386-17-41      17    41.00       2369.    
     MULTIPLE LAYERS AND PROPORTIONS :    1, 0.37       2, 0.49       3, 0.14
  3740 1386-22-31      22    31.00       2358.    
     MULTIPLE LAYERS AND PROPORTIONS :    1, 0.37       2, 0.49       3, 0.14
  3741 1386-42-362     42    362.0       2292.    
     MULTIPLE LAYERS AND PROPORTIONS :    2, 0.86       3, 0.14
  3742 1386-48-337     48    337.0       2298.    
     MULTIPLE LAYERS AND PROPORTIONS :    2, 0.86       3, 0.14
  3743 1386-56-16      56    16.00       2296.    
     MULTIPLE LAYERS AND PROPORTIONS :    2, 0.86       3, 0.14
  3744 1398-48-335     48    335.0       2302.    
     MULTIPLE LAYERS AND PROPORTIONS :    2, 0.45       3, 0.55
  3745 1401-2-1         2    1.000       2373.    
  3746 1401-12-53      12    53.00       2358.    
  3747 1401-17-60      17    60.00       2362.    
  3748 1401-22-26      22    26.00       2353.    
  3749 1427-17-39      17    39.00       2358.    
  3750 1427-22-31      22    31.00       2350.    
  3751 1427-42-362     42    362.0       2293.    
  3752 1427-48-364     48    364.0       2305.    
  3753 1427-56-33      56    33.00       2285.    
  3754 1378-42-364     42    364.0       2285.    
  3755 1400-1-32        1    32.00       2376.    
 Observation within a steady-state time step has been moved to the end of the time step.
  3756 1400-12-53      12    53.00       2361.    
  3757 1400-17-60      17    60.00       2364.    
  3758 1400-22-26      22    26.00       2355.    
  3759 1400-27-48      27    48.00       2349.    
  3760 1400-36-3       36    3.000       2310.    
  3761 1400-43-5       43    5.000       2292.    
  3762 1400-48-364     48    364.0       2307.    
  3763 1400-56-33      56    33.00       2284.    
  3764 1400-60-363     60    363.0       2248.    
  3765 1400-71-365     71    365.0       2259.    
  3766 1405-7-308       7    308.0       2360.    
  3767 1405-10-34      10    34.00       2359.    
  3768 1405-43-5       43    5.000       2287.    
  3769 1405-48-364     48    364.0       2301.    
  3770 1405-56-33      56    33.00       2278.    
  3771 1405-66-13      66    13.00       2235.    
  3772 1405-71-365     71    365.0       2252.    
  3773 1349-17-41      17    41.00       2357.    
     MULTIPLE LAYERS AND PROPORTIONS :    1, 0.15       2, 0.85
  3774 1349-22-30      22    30.00       2345.    
     MULTIPLE LAYERS AND PROPORTIONS :    1, 0.15       2, 0.85
  3775 1329-1-274       1    274.0       2381.    
 Observation within a steady-state time step has been moved to the end of the time step.
  3776 1329-17-41      17    41.00       2368.    
  3777 1329-22-31      22    31.00       2357.    
  3778 1329-42-364     42    364.0       2285.    
  3779 1329-56-16      56    16.00       2275.    
  3780 1329-66-26      66    26.00       2245.    
  3781 1282-1-277       1    277.0       2407.    
 Observation within a steady-state time step has been moved to the end of the time step.
  3782 1283-1-309       1    309.0       2387.    
 Observation within a steady-state time step has been moved to the end of the time step.
  3783 1283-6-340       6    340.0       2379.    
  3784 1283-11-350     11    350.0       2372.    
  3785 1283-16-301     16    301.0       2369.    
  3786 1283-22-30      22    30.00       2361.    
  3787 1283-27-10      27    10.00       2352.    
  3788 1283-35-345     35    345.0       2312.    
  3789 1274-6-288       6    288.0       2376.    
  3790 1274-12-54      12    54.00       2369.    
  3791 1274-17-41      17    41.00       2373.    
  3792 1274-22-30      22    30.00       2360.    
  3793 1356-43-1       43    1.000       2285.    
     MULTIPLE LAYERS AND PROPORTIONS :    2, 0.71       3, 0.29
  3794 1347-66-49      66    49.00       2241.    
  3795 1345-55-350     55    350.0       2281.    
     MULTIPLE LAYERS AND PROPORTIONS :    2, 0.74       3, 0.26
  3796 1345-61-33      61    33.00       2244.    
     MULTIPLE LAYERS AND PROPORTIONS :    2, 0.74       3, 0.26
  3797 1345-66-49      66    49.00       2241.    
     MULTIPLE LAYERS AND PROPORTIONS :    2, 0.74       3, 0.26
  3798 1345-71-68      71    68.00       2252.    
     MULTIPLE LAYERS AND PROPORTIONS :    2, 0.74       3, 0.26
  3799 1345-71-365     71    365.0       2257.    
  3800 1321-12-57      12    57.00       2369.    
  3801 1321-17-41      17    41.00       2374.    
  3802 1321-22-27      22    27.00       2361.    
  3803 1321-27-51      27    51.00       2354.    
  3804 1360-56-34      56    34.00       2271.    
     MULTIPLE LAYERS AND PROPORTIONS :    2, 0.64       3, 0.36
  3805 1360-60-362     60    362.0       2240.    
     MULTIPLE LAYERS AND PROPORTIONS :    2, 0.64       3, 0.36
  3806 1360-65-348     65    348.0       2229.    
     MULTIPLE LAYERS AND PROPORTIONS :    2, 0.64       3, 0.36
  3807 1360-71-48      71    48.00       2243.    
     MULTIPLE LAYERS AND PROPORTIONS :    2, 0.64       3, 0.36
  3808 1360-71-365     71    365.0       2248.    
     MULTIPLE LAYERS AND PROPORTIONS :    2, 0.64       3, 0.36
  3809 1328-1-277       1    277.0       2386.    
 Observation within a steady-state time step has been moved to the end of the time step.
  3810 1328-6-295       6    295.0       2377.    
  3811 1306-11-41      11    41.00       2364.    
     MULTIPLE LAYERS AND PROPORTIONS :    1, 0.31       2, 0.69
  3812 1306-17-41      17    41.00       2368.    
     MULTIPLE LAYERS AND PROPORTIONS :    1, 0.31       2, 0.69
  3813 1306-22-27      22    27.00       2356.    
     MULTIPLE LAYERS AND PROPORTIONS :    1, 0.31       2, 0.69
  3814 1306-43-5       43    5.000       2286.    
  3815 1306-48-364     48    364.0       2304.    
  3816 1306-56-33      56    33.00       2272.    
  3817 1306-60-363     60    363.0       2238.    
  3818 1306-66-6       66    6.000       2234.    
     MULTIPLE LAYERS AND PROPORTIONS :    1, 0.31       2, 0.69
  3819 1306-71-60      71    60.00       2246.    
     MULTIPLE LAYERS AND PROPORTIONS :    1, 0.31       2, 0.69
  3820 1306-71-365     71    365.0       2252.    
     MULTIPLE LAYERS AND PROPORTIONS :    1, 0.31       2, 0.69
  3821 1307-1-274       1    274.0       2386.    
 Observation within a steady-state time step has been moved to the end of the time step.
  3822 1307-11-41      11    41.00       2369.    
  3823 1307-17-41      17    41.00       2375.    
  3824 1307-22-27      22    27.00       2362.    
  3825 1307-26-349     26    349.0       2350.    
  3826 1307-48-364     48    364.0       2309.    
  3827 1307-56-33      56    33.00       2279.    
  3828 1307-71-60      71    60.00       2253.    
  3829 1307-71-365     71    365.0       2258.    
  3830 1304-1-274       1    274.0       2381.    
 Observation within a steady-state time step has been moved to the end of the time step.
  3831 1304-11-41      11    41.00       2365.    
  3832 1304-17-32      17    32.00       2370.    
  3833 1304-22-27      22    27.00       2354.    
  3834 1304-26-302     26    302.0       2340.    
  3835 1304-48-364     48    364.0       2301.    
  3836 1304-56-33      56    33.00       2270.    
  3837 1304-60-356     60    356.0       2235.    
  3838 1304-71-60      71    60.00       2244.    
  3839 1281-12-54      12    54.00       2373.    
  3840 1281-17-41      17    41.00       2377.    
  3841 1281-22-30      22    30.00       2365.    
  3842 1281-32-50      32    50.00       2343.    
  3843 1281-37-49      37    49.00       2314.    
  3844 1292-1-274       1    274.0       2389.    
 Observation within a steady-state time step has been moved to the end of the time step.
  3845 1292-17-46      17    46.00       2376.    
  3846 1292-22-27      22    27.00       2363.    
  3847 1292-26-349     26    349.0       2351.    
  3848 1292-43-5       43    5.000       2291.    
  3849 1292-48-364     48    364.0       2311.    
  3850 1272-1-60        1    60.00       2392.    
 Observation within a steady-state time step has been moved to the end of the time step.
  3851 1272-7-176       7    176.0       2374.    
  3852 1272-60-363     60    363.0       2245.    
  3853 1272-65-348     65    348.0       2241.    
  3854 1272-71-365     71    365.0       2258.    
  3855 1298-42-362     42    362.0       2292.    
     MULTIPLE LAYERS AND PROPORTIONS :    2, 0.43       3, 0.57
  3856 1298-56-10      56    10.00       2279.    
     MULTIPLE LAYERS AND PROPORTIONS :    2, 0.43       3, 0.57
  3857 1298-60-363     60    363.0       2244.    
     MULTIPLE LAYERS AND PROPORTIONS :    2, 0.43       3, 0.57
  3858 1298-66-13      66    13.00       2240.    
     MULTIPLE LAYERS AND PROPORTIONS :    2, 0.43       3, 0.57
  3859 1298-71-365     71    365.0       2257.    
     MULTIPLE LAYERS AND PROPORTIONS :    2, 0.43       3, 0.57
  3860 1299-56-10      56    10.00       2280.    
  3861 1299-66-13      66    13.00       2240.    
  3862 1299-71-365     71    365.0       2255.    
  3863 1294-43-5       43    5.000       2283.    
  3864 1294-48-364     48    364.0       2302.    
  3865 1294-56-10      56    10.00       2272.    
  3866 1294-60-363     60    363.0       2237.    
  3867 1294-66-13      66    13.00       2233.    
     MULTIPLE LAYERS AND PROPORTIONS :    1, 0.30       2, 0.70
  3868 1294-71-365     71    365.0       2251.    
     MULTIPLE LAYERS AND PROPORTIONS :    1, 0.30       2, 0.70
  3869 1296-71-60      71    60.00       2249.    
     MULTIPLE LAYERS AND PROPORTIONS :    2, 0.15       3, 0.85
  3870 1288-56-10      56    10.00       2281.    
  3871 1288-66-13      66    13.00       2242.    
  3872 1288-71-41      71    41.00       2251.    
  3873 1288-71-365     71    365.0       2257.    
  3874 1285-60-361     60    361.0       2244.    
     MULTIPLE LAYERS AND PROPORTIONS :    2, 0.38       3, 0.62
  3875 1285-71-365     71    365.0       2257.    
     MULTIPLE LAYERS AND PROPORTIONS :    2, 0.38       3, 0.62
  3876 1291-60-361     60    361.0       2243.    
     MULTIPLE LAYERS AND PROPORTIONS :    2, 0.39       3, 0.61
  3877 1291-71-365     71    365.0       2257.    
     MULTIPLE LAYERS AND PROPORTIONS :    2, 0.39       3, 0.61
  3878 1287-60-361     60    361.0       2245.    
     MULTIPLE LAYERS AND PROPORTIONS :    2, 0.39       3, 0.61
  3879 1287-71-365     71    365.0       2258.    
     MULTIPLE LAYERS AND PROPORTIONS :    2, 0.39       3, 0.61
  3880 1342-71-62      71    62.00       2342.    
     MULTIPLE LAYERS AND PROPORTIONS :    1, 0.62       2, 0.38
  3881 1342-71-365     71    365.0       2341.    
     MULTIPLE LAYERS AND PROPORTIONS :    1, 0.62       2, 0.38
  3882 1346-11-40      11    40.00       2376.    
  3883 1346-17-44      17    44.00       2376.    
  3884 1346-22-27      22    27.00       2364.    
  3885 1346-27-59      27    59.00       2357.    
  3886 1346-32-50      32    50.00       2357.    
  3887 1346-42-362     42    362.0       2298.    
  3888 1346-48-357     48    357.0       2313.    
  3889 1346-56-32      56    32.00       2285.    
  3890 1346-60-363     60    363.0       2302.    
  3891 1346-71-62      71    62.00       2262.    
  3892 1346-71-365     71    365.0       2268.    
  3893 1351-71-62      71    62.00       2310.    
  3894 1351-71-365     71    365.0       2310.    
  3895 1305-12-57      12    57.00       2382.    
  3896 1305-17-46      17    46.00       2384.    
  3897 1305-22-27      22    27.00       2366.    
  3898 1305-42-362     42    362.0       2294.    
  3899 1305-48-357     48    357.0       2312.    
  3900 1305-55-357     55    357.0       2285.    
  3901 1305-60-342     60    342.0       2251.    
  3902 1305-66-59      66    59.00       2248.    
  3903 1305-71-20      71    20.00       2255.    
  3904 1305-71-365     71    365.0       2261.    
  3905 1286-1-91        1    91.00       2419.    
 Observation within a steady-state time step has been moved to the end of the time step.
  3906 1284-60-361     60    361.0       2246.    
     MULTIPLE LAYERS AND PROPORTIONS :    2, 0.53       3, 0.47
  3907 1284-65-356     65    356.0       2240.    
     MULTIPLE LAYERS AND PROPORTIONS :    2, 0.53       3, 0.47
  3908 1284-71-365     71    365.0       2258.    
     MULTIPLE LAYERS AND PROPORTIONS :    2, 0.53       3, 0.47
  3909 1271-42-362     42    362.0       2294.    
     MULTIPLE LAYERS AND PROPORTIONS :    2, 0.43       3, 0.57
  3910 1271-56-10      56    10.00       2284.    
     MULTIPLE LAYERS AND PROPORTIONS :    2, 0.43       3, 0.57
  3911 1271-60-363     60    363.0       2250.    
     MULTIPLE LAYERS AND PROPORTIONS :    2, 0.43       3, 0.57
  3912 1271-66-13      66    13.00       2244.    
     MULTIPLE LAYERS AND PROPORTIONS :    1, 0.22       2, 0.21       3, 0.57
  3913 1271-71-62      71    62.00       2255.    
     MULTIPLE LAYERS AND PROPORTIONS :    1, 0.22       2, 0.21       3, 0.57
  3914 1271-71-365     71    365.0       2259.    
     MULTIPLE LAYERS AND PROPORTIONS :    1, 0.22       2, 0.21       3, 0.57
  3915 1293-56-10      56    10.00       2282.    
  3916 1293-66-13      66    13.00       2243.    
  3917 1293-71-47      71    47.00       2251.    
  3918 1293-71-365     71    365.0       2257.    
  3919 1898-10-252     10    252.0       2397.    
  3920 1873-10-252     10    252.0       2394.    
  3921 1763-10-252     10    252.0       2409.    
  3922 1762-7-161       7    161.0       2417.    
     MULTIPLE LAYERS AND PROPORTIONS :    1, 0.89       2, 0.11
  3923 1762-22-60      22    60.00       2383.    
     MULTIPLE LAYERS AND PROPORTIONS :    1, 0.89       2, 0.11
  3924 1776-42-355     42    355.0       2284.    
     MULTIPLE LAYERS AND PROPORTIONS :    1, 0.57       2, 0.43
  3925 1776-56-27      56    27.00       2238.    
     MULTIPLE LAYERS AND PROPORTIONS :    1, 0.57       2, 0.43
  3926 1776-66-54      66    54.00       2214.    
     MULTIPLE LAYERS AND PROPORTIONS :    1, 0.57       2, 0.43
  3927 1776-71-64      71    64.00       2224.    
     MULTIPLE LAYERS AND PROPORTIONS :    1, 0.57       2, 0.43
  3928 1776-71-365     71    365.0       2228.    
     MULTIPLE LAYERS AND PROPORTIONS :    1, 0.57       2, 0.43
  3929 1775-42-355     42    355.0       2284.    
  3930 1775-56-27      56    27.00       2239.    
  3931 1775-66-54      66    54.00       2213.    
  3932 1775-71-64      71    64.00       2224.    
  3933 1775-71-365     71    365.0       2228.    
  3934 1905-10-252     10    252.0       2395.    
  3935 1875-10-252     10    252.0       2391.    
  3936 1877-22-79      22    79.00       2360.    
  3937 1877-42-356     42    356.0       2273.    
  3938 1877-48-355     48    355.0       2238.    
  3939 1877-66-59      66    59.00       2185.    
  3940 1877-71-64      71    64.00       2205.    
  3941 1877-71-365     71    365.0       2210.    
  3942 1878-42-356     42    356.0       2273.    
  3943 1878-48-356     48    356.0       2239.    
  3944 1878-56-10      56    10.00       2207.    
  3945 1878-61-26      61    26.00       2176.    
  3946 1878-66-59      66    59.00       2186.    
  3947 1878-71-64      71    64.00       2207.    
  3948 1878-71-365     71    365.0       2211.    
  3949 1926-42-363     42    363.0       2274.    
  3950 1886-22-79      22    79.00       2353.    
  3951 1886-26-349     26    349.0       2341.    
  3952 1886-42-362     42    362.0       2271.    
  3953 1886-48-357     48    357.0       2237.    
  3954 1886-56-24      56    24.00       2201.    
  3955 1886-66-1       66    1.000       2173.    
  3956 1886-71-62      71    62.00       2198.    
  3957 1886-71-365     71    365.0       2203.    
  3958 1852-10-255     10    255.0       2390.    
  3959 1822-10-255     10    255.0       2384.    
  3960 1786-66-19      66    19.00       2167.    
  3961 1786-71-33      71    33.00       2188.    
  3962 1786-71-365     71    365.0       2192.    
  3963 1851-10-252     10    252.0       2391.    
  3964 1791-12-116     12    116.0       2390.    
     MULTIPLE LAYERS AND PROPORTIONS :    1, 0.28       2, 0.72
  3965 1791-22-79      22    79.00       2356.    
     MULTIPLE LAYERS AND PROPORTIONS :    1, 0.28       2, 0.72
  3966 1791-26-294     26    294.0       2344.    
     MULTIPLE LAYERS AND PROPORTIONS :    1, 0.28       2, 0.72
  3967 1791-42-356     42    356.0       2270.    
     MULTIPLE LAYERS AND PROPORTIONS :    1, 0.28       2, 0.72
  3968 1791-48-356     48    356.0       2235.    
     MULTIPLE LAYERS AND PROPORTIONS :    1, 0.28       2, 0.72
  3969 1791-66-56      66    56.00       2187.    
     MULTIPLE LAYERS AND PROPORTIONS :    1, 0.28       2, 0.72
  3970 1791-71-33      71    33.00       2203.    
     MULTIPLE LAYERS AND PROPORTIONS :    1, 0.28       2, 0.72
  3971 1791-71-365     71    365.0       2208.    
     MULTIPLE LAYERS AND PROPORTIONS :    1, 0.28       2, 0.72
  3972 1785-42-356     42    356.0       2271.    
     MULTIPLE LAYERS AND PROPORTIONS :    1, 0.24       2, 0.76
  3973 1785-48-356     48    356.0       2235.    
     MULTIPLE LAYERS AND PROPORTIONS :    1, 0.24       2, 0.76
  3974 1785-56-10      56    10.00       2212.    
     MULTIPLE LAYERS AND PROPORTIONS :    1, 0.24       2, 0.76
  3975 1785-61-26      61    26.00       2173.    
     MULTIPLE LAYERS AND PROPORTIONS :    1, 0.24       2, 0.76
  3976 1785-66-56      66    56.00       2186.    
     MULTIPLE LAYERS AND PROPORTIONS :    1, 0.24       2, 0.76
  3977 1785-71-33      71    33.00       2203.    
     MULTIPLE LAYERS AND PROPORTIONS :    1, 0.24       2, 0.76
  3978 1785-71-365     71    365.0       2208.    
     MULTIPLE LAYERS AND PROPORTIONS :    1, 0.24       2, 0.76
  3979 1928-10-256     10    256.0       2381.    
  3980 1879-12-111     12    111.0       2376.    
     MULTIPLE LAYERS AND PROPORTIONS :    1, 0.20       2, 0.80
  3981 1879-22-79      22    79.00       2350.    
     MULTIPLE LAYERS AND PROPORTIONS :    1, 0.20       2, 0.80
  3982 1879-42-362     42    362.0       2268.    
     MULTIPLE LAYERS AND PROPORTIONS :    1, 0.20       2, 0.80
  3983 1879-48-357     48    357.0       2235.    
     MULTIPLE LAYERS AND PROPORTIONS :    1, 0.20       2, 0.80
  3984 1879-55-353     55    353.0       2199.    
     MULTIPLE LAYERS AND PROPORTIONS :    1, 0.20       2, 0.80
  3985 1879-60-313     60    313.0       2201.    
     MULTIPLE LAYERS AND PROPORTIONS :    1, 0.20       2, 0.80
  3986 1879-71-49      71    49.00       2192.    
     MULTIPLE LAYERS AND PROPORTIONS :    1, 0.20       2, 0.80
  3987 1879-71-365     71    365.0       2198.    
     MULTIPLE LAYERS AND PROPORTIONS :    1, 0.20       2, 0.80
  3988 1824-10-256     10    256.0       2376.    
  3989 1811-7-156       7    156.0       2379.    
     MULTIPLE LAYERS AND PROPORTIONS :    1, 0.33       2, 0.67
  3990 1811-22-79      22    79.00       2341.    
     MULTIPLE LAYERS AND PROPORTIONS :    1, 0.33       2, 0.67
  3991 1811-32-32      32    32.00       2314.    
     MULTIPLE LAYERS AND PROPORTIONS :    1, 0.33       2, 0.67
  3992 1811-48-357     48    357.0       2232.    
     MULTIPLE LAYERS AND PROPORTIONS :    1, 0.33       2, 0.67
  3993 1811-55-354     55    354.0       2190.    
     MULTIPLE LAYERS AND PROPORTIONS :    1, 0.33       2, 0.67
  3994 1811-60-349     60    349.0       2149.    
     MULTIPLE LAYERS AND PROPORTIONS :    1, 0.33       2, 0.67
  3995 1811-65-355     65    355.0       2161.    
     MULTIPLE LAYERS AND PROPORTIONS :    1, 0.33       2, 0.67
  3996 1811-71-68      71    68.00       2187.    
     MULTIPLE LAYERS AND PROPORTIONS :    1, 0.33       2, 0.67
  3997 1811-71-365     71    365.0       2193.    
     MULTIPLE LAYERS AND PROPORTIONS :    1, 0.33       2, 0.67
  3998 1777-10-256     10    256.0       2378.    
  3999 1823-42-362     42    362.0       2268.    
     MULTIPLE LAYERS AND PROPORTIONS :    1, 0.44       2, 0.56
  4000 1823-48-357     48    357.0       2235.    
     MULTIPLE LAYERS AND PROPORTIONS :    1, 0.44       2, 0.56
  4001 1823-56-32      56    32.00       2194.    
     MULTIPLE LAYERS AND PROPORTIONS :    1, 0.45       2, 0.55
  4002 1823-60-313     60    313.0       2165.    
     MULTIPLE LAYERS AND PROPORTIONS :    1, 0.45       2, 0.55
  4003 1823-66-19      66    19.00       2171.    
     MULTIPLE LAYERS AND PROPORTIONS :    1, 0.45       2, 0.55
  4004 1823-71-49      71    49.00       2194.    
     MULTIPLE LAYERS AND PROPORTIONS :    1, 0.45       2, 0.55
  4005 1823-71-365     71    365.0       2200.    
     MULTIPLE LAYERS AND PROPORTIONS :    1, 0.45       2, 0.55
  4006 1744-10-256     10    256.0       2381.    
  4007 1907-12-116     12    116.0       2361.    
  4008 1907-22-79      22    79.00       2337.    
  4009 1907-42-362     42    362.0       2259.    
  4010 1907-48-357     48    357.0       2229.    
  4011 1907-71-365     71    365.0       2189.    
  4012 1906-42-362     42    362.0       2259.    
     MULTIPLE LAYERS AND PROPORTIONS :    1, 0.34       2, 0.66
  4013 1906-48-357     48    357.0       2230.    
     MULTIPLE LAYERS AND PROPORTIONS :    1, 0.34       2, 0.66
  4014 1906-55-356     55    356.0       2188.    
     MULTIPLE LAYERS AND PROPORTIONS :    1, 0.34       2, 0.66
  4015 1906-60-341     60    341.0       2164.    
     MULTIPLE LAYERS AND PROPORTIONS :    1, 0.34       2, 0.66
  4016 1906-65-355     65    355.0       2153.    
     MULTIPLE LAYERS AND PROPORTIONS :    1, 0.34       2, 0.66
  4017 1906-71-32      71    32.00       2182.    
     MULTIPLE LAYERS AND PROPORTIONS :    1, 0.34       2, 0.66
  4018 1906-71-365     71    365.0       2189.    
     MULTIPLE LAYERS AND PROPORTIONS :    1, 0.34       2, 0.66
  4019 1899-66-19      66    19.00       2159.    
  4020 1899-71-32      71    32.00       2181.    
  4021 1899-71-365     71    365.0       2188.    
  4022 1778-12-261     12    261.0       2348.    
  4023 1764-10-257     10    257.0       2360.    
  4024 1765-42-362     42    362.0       2257.    
     MULTIPLE LAYERS AND PROPORTIONS :    1, 0.15       2, 0.85
  4025 1765-48-357     48    357.0       2229.    
     MULTIPLE LAYERS AND PROPORTIONS :    1, 0.15       2, 0.85
  4026 1765-55-354     55    354.0       2179.    
     MULTIPLE LAYERS AND PROPORTIONS :    1, 0.15       2, 0.85
  4027 1765-60-349     60    349.0       2153.    
     MULTIPLE LAYERS AND PROPORTIONS :    1, 0.15       2, 0.85
  4028 1765-66-56      66    56.00       2160.    
     MULTIPLE LAYERS AND PROPORTIONS :    1, 0.15       2, 0.85
  4029 1765-71-32      71    32.00       2181.    
     MULTIPLE LAYERS AND PROPORTIONS :    1, 0.15       2, 0.85
  4030 1765-71-365     71    365.0       2188.    
     MULTIPLE LAYERS AND PROPORTIONS :    1, 0.15       2, 0.85
  4031 1816-10-153     10    153.0       2360.    
  4032 1825-42-335     42    335.0       2255.    
     MULTIPLE LAYERS AND PROPORTIONS :    1, 0.14       2, 0.86
  4033 1825-48-357     48    357.0       2225.    
     MULTIPLE LAYERS AND PROPORTIONS :    1, 0.14       2, 0.86
  4034 1825-56-27      56    27.00       2180.    
     MULTIPLE LAYERS AND PROPORTIONS :    1, 0.14       2, 0.86
  4035 1825-61-42      61    42.00       2142.    
     MULTIPLE LAYERS AND PROPORTIONS :    1, 0.14       2, 0.86
  4036 1825-66-19      66    19.00       2156.    
     MULTIPLE LAYERS AND PROPORTIONS :    1, 0.14       2, 0.86
  4037 1825-71-32      71    32.00       2178.    
     MULTIPLE LAYERS AND PROPORTIONS :    1, 0.14       2, 0.86
  4038 1825-71-365     71    365.0       2185.    
     MULTIPLE LAYERS AND PROPORTIONS :    1, 0.14       2, 0.86
  4039 1888-22-79      22    79.00       2317.    
  4040 1888-32-32      32    32.00       2295.    
  4041 1888-42-362     42    362.0       2247.    
  4042 1888-48-357     48    357.0       2222.    
  4043 1888-65-355     65    355.0       2147.    
  4044 1888-71-32      71    32.00       2173.    
  4045 1888-71-365     71    365.0       2179.    
  4046 1890-42-362     42    362.0       2247.    
     MULTIPLE LAYERS AND PROPORTIONS :    1, 0.20       2, 0.80
  4047 1890-48-357     48    357.0       2222.    
     MULTIPLE LAYERS AND PROPORTIONS :    1, 0.20       2, 0.80
  4048 1890-55-350     55    350.0       2180.    
     MULTIPLE LAYERS AND PROPORTIONS :    1, 0.20       2, 0.80
  4049 1890-61-42      61    42.00       2153.    
     MULTIPLE LAYERS AND PROPORTIONS :    1, 0.20       2, 0.80
  4050 1890-66-19      66    19.00       2152.    
     MULTIPLE LAYERS AND PROPORTIONS :    1, 0.20       2, 0.80
  4051 1890-71-32      71    32.00       2176.    
     MULTIPLE LAYERS AND PROPORTIONS :    1, 0.20       2, 0.80
  4052 1890-71-365     71    365.0       2180.    
     MULTIPLE LAYERS AND PROPORTIONS :    1, 0.20       2, 0.80
  4053 1812-12-91      12    91.00       2340.    
  4054 1812-22-62      22    62.00       2314.    
  4055 1812-32-60      32    60.00       2298.    
  4056 1827-42-362     42    362.0       2250.    
  4057 1827-48-357     48    357.0       2224.    
  4058 1827-56-25      56    25.00       2183.    
  4059 1827-61-42      61    42.00       2153.    
  4060 1827-66-19      66    19.00       2155.    
  4061 1827-71-32      71    32.00       2178.    
  4062 1827-71-365     71    365.0       2184.    
  4063 1779-12-109     12    109.0       2333.    
  4064 1779-17-80      17    80.00       2325.    
  4065 1779-22-79      22    79.00       2314.    
  4066 1779-42-362     42    362.0       2247.    
  4067 1870-42-364     42    364.0       2234.    
  4068 1817-56-20      56    20.00       2185.    
  4069 1817-66-34      66    34.00       2159.    
  4070 1747-71-60      71    60.00       2179.    
  4071 1722-1-152       1    152.0       2342.    
 Observation within a steady-state time step has been moved to the end of the time step.
  4072 1722-22-80      22    80.00       2297.    
  4073 1722-26-349     26    349.0       2292.    
  4074 1722-32-32      32    32.00       2282.    
  4075 1722-42-362     42    362.0       2237.    
  4076 1722-48-357     48    357.0       2221.    
  4077 1722-56-24      56    24.00       2192.    
  4078 1722-61-11      61    11.00       2180.    
  4079 1722-66-59      66    59.00       2175.    
  4080 1722-71-56      71    56.00       2178.    
  4081 1722-71-365     71    365.0       2182.    
  4082 1668-56-20      56    20.00       2191.    
  4083 1666-66-34      66    34.00       2190.    
  4084 1718-56-20      56    20.00       2187.    
     MULTIPLE LAYERS AND PROPORTIONS :    1, 0.79       2, 0.21
  4085 1718-61-59      61    59.00       2146.    
     MULTIPLE LAYERS AND PROPORTIONS :    1, 0.79       2, 0.21
  4086 1718-66-34      66    34.00       2164.    
     MULTIPLE LAYERS AND PROPORTIONS :    1, 0.79       2, 0.21
  4087 1662-56-20      56    20.00       2204.    
     MULTIPLE LAYERS AND PROPORTIONS :    1, 0.17       2, 0.83
  4088 1664-66-34      66    34.00       2183.    
  4089 1664-71-60      71    60.00       2192.    
  4090 1641-66-34      66    34.00       2201.    
  4091 1619-1-365       1    365.0       2394.    
 Observation within a steady-state time step has been moved to the end of the time step.
     MULTIPLE LAYERS AND PROPORTIONS :    1, 0.59       2, 0.41
  4092 1619-8-57        8    57.00       2377.    
     MULTIPLE LAYERS AND PROPORTIONS :    1, 0.59       2, 0.41
  4093 1619-12-59      12    59.00       2359.    
     MULTIPLE LAYERS AND PROPORTIONS :    1, 0.59       2, 0.41
  4094 1619-17-87      17    87.00       2354.    
     MULTIPLE LAYERS AND PROPORTIONS :    1, 0.59       2, 0.41
  4095 1619-22-79      22    79.00       2342.    
     MULTIPLE LAYERS AND PROPORTIONS :    1, 0.59       2, 0.41
  4096 1619-42-335     42    335.0       2296.    
     MULTIPLE LAYERS AND PROPORTIONS :    1, 0.59       2, 0.41
  4097 1608-35-121     35    121.0       2274.    
     MULTIPLE LAYERS AND PROPORTIONS :    1, 0.62       2, 0.38
  4098 1608-42-362     42    362.0       2247.    
     MULTIPLE LAYERS AND PROPORTIONS :    1, 0.62       2, 0.38
  4099 1608-48-357     48    357.0       2236.    
     MULTIPLE LAYERS AND PROPORTIONS :    1, 0.62       2, 0.38
  4100 1608-55-340     55    340.0       2209.    
     MULTIPLE LAYERS AND PROPORTIONS :    1, 0.62       2, 0.38
  4101 1608-60-348     60    348.0       2202.    
     MULTIPLE LAYERS AND PROPORTIONS :    1, 0.62       2, 0.38
  4102 1608-66-5       66    5.000       2200.    
     MULTIPLE LAYERS AND PROPORTIONS :    1, 0.62       2, 0.38
  4103 1608-71-1       71    1.000       2203.    
     MULTIPLE LAYERS AND PROPORTIONS :    1, 0.62       2, 0.38
  4104 1608-71-365     71    365.0       2204.    
     MULTIPLE LAYERS AND PROPORTIONS :    1, 0.62       2, 0.38
  4105 1714-56-33      56    33.00       2195.    
  4106 1714-71-29      71    29.00       2178.    
  4107 1714-71-365     71    365.0       2182.    
  4108 1715-66-59      66    59.00       2166.    
  4109 1715-71-29      71    29.00       2178.    
  4110 1715-71-365     71    365.0       2183.    
  4111 1716-66-59      66    59.00       2166.    
  4112 1716-71-29      71    29.00       2177.    
  4113 1716-71-365     71    365.0       2181.    
  4114 1717-71-32      71    32.00       2177.    
  4115 1717-71-365     71    365.0       2181.    
  4116 1689-71-29      71    29.00       2180.    
  4117 1689-71-365     71    365.0       2183.    
  4118 1696-66-59      66    59.00       2170.    
  4119 1696-71-29      71    29.00       2180.    
  4120 1696-71-365     71    365.0       2183.    
  4121 1673-2-274       2    274.0       2365.    
     MULTIPLE LAYERS AND PROPORTIONS :    1, 0.81       2, 0.19
  4122 1673-8-57        8    57.00       2356.    
     MULTIPLE LAYERS AND PROPORTIONS :    1, 0.81       2, 0.19
  4123 1673-12-59      12    59.00       2341.    
     MULTIPLE LAYERS AND PROPORTIONS :    1, 0.81       2, 0.19
  4124 1673-17-87      17    87.00       2331.    
     MULTIPLE LAYERS AND PROPORTIONS :    1, 0.81       2, 0.19
  4125 1673-22-79      22    79.00       2324.    
     MULTIPLE LAYERS AND PROPORTIONS :    1, 0.81       2, 0.19
  4126 1673-42-363     42    363.0       2258.    
     MULTIPLE LAYERS AND PROPORTIONS :    1, 0.81       2, 0.19
  4127 1673-48-357     48    357.0       2234.    
     MULTIPLE LAYERS AND PROPORTIONS :    1, 0.81       2, 0.19
  4128 1673-56-24      56    24.00       2195.    
     MULTIPLE LAYERS AND PROPORTIONS :    1, 0.81       2, 0.19
  4129 1723-1-32        1    32.00       2370.    
 Observation within a steady-state time step has been moved to the end of the time step.
  4130 1723-12-59      12    59.00       2331.    
  4131 1723-17-87      17    87.00       2319.    
  4132 1723-22-80      22    80.00       2306.    
  4133 1723-42-363     42    363.0       2250.    
  4134 1723-48-357     48    357.0       2231.    
  4135 1723-56-24      56    24.00       2195.    
  4136 1723-60-348     60    348.0       2174.    
  4137 1723-66-59      66    59.00       2169.    
  4138 1723-71-32      71    32.00       2180.    
  4139 1723-71-365     71    365.0       2185.    
  4140 1724-1-365       1    365.0       2346.    
 Observation within a steady-state time step has been moved to the end of the time step.
  4141 1724-12-59      12    59.00       2327.    
  4142 1724-17-82      17    82.00       2317.    
  4143 1724-22-80      22    80.00       2304.    
  4144 1724-42-363     42    363.0       2247.    
  4145 1724-48-357     48    357.0       2230.    
  4146 1724-56-20      56    20.00       2196.    
  4147 1724-60-348     60    348.0       2180.    
  4148 1724-66-59      66    59.00       2175.    
  4149 1724-71-56      71    56.00       2182.    
  4150 1724-71-365     71    365.0       2186.    
  4151 1694-17-82      17    82.00       2345.    
     MULTIPLE LAYERS AND PROPORTIONS :    1, 0.79       2, 0.21
  4152 1694-22-80      22    80.00       2332.    
     MULTIPLE LAYERS AND PROPORTIONS :    1, 0.79       2, 0.21
  4153 1699-42-363     42    363.0       2258.    
  4154 1699-48-357     48    357.0       2227.    
  4155 1699-55-356     55    356.0       2177.    
  4156 1699-60-349     60    349.0       2146.    
  4157 1699-66-56      66    56.00       2161.    
  4158 1699-71-32      71    32.00       2177.    
  4159 1699-71-365     71    365.0       2185.    
  4160 1695-7-158       7    158.0       2368.    
  4161 1695-42-363     42    363.0       2263.    
  4162 1695-48-357     48    357.0       2234.    
  4163 1695-56-24      56    24.00       2185.    
  4164 1695-60-336     60    336.0       2192.    
  4165 1695-66-56      66    56.00       2168.    
  4166 1695-71-56      71    56.00       2184.    
  4167 1695-71-365     71    365.0       2190.    
  4168 1658-2-217       2    217.0       2372.    
     MULTIPLE LAYERS AND PROPORTIONS :    1, 0.83       2, 0.17
  4169 1658-8-58        8    58.00       2367.    
     MULTIPLE LAYERS AND PROPORTIONS :    1, 0.83       2, 0.17
  4170 1658-12-59      12    59.00       2352.    
     MULTIPLE LAYERS AND PROPORTIONS :    1, 0.83       2, 0.17
  4171 1658-17-87      17    87.00       2338.    
     MULTIPLE LAYERS AND PROPORTIONS :    1, 0.83       2, 0.17
  4172 1658-22-81      22    81.00       2328.    
     MULTIPLE LAYERS AND PROPORTIONS :    1, 0.83       2, 0.17
  4173 1652-42-363     42    363.0       2266.    
  4174 1652-48-357     48    357.0       2241.    
  4175 1652-56-24      56    24.00       2202.    
  4176 1652-60-349     60    349.0       2177.    
  4177 1652-66-1       66    1.000       2177.    
  4178 1652-71-76      71    76.00       2192.    
  4179 1652-71-365     71    365.0       2196.    
  4180 1633-12-96      12    96.00       2371.    
  4181 1633-17-89      17    89.00       2356.    
  4182 1633-42-355     42    355.0       2266.    
  4183 1713-61-54      61    54.00       2157.    
  4184 1713-66-56      66    56.00       2183.    
  4185 1713-71-64      71    64.00       2202.    
  4186 1713-71-365     71    365.0       2207.    
  4187 1670-42-357     42    357.0       2269.    
     MULTIPLE LAYERS AND PROPORTIONS :    1, 0.40       2, 0.60
  4188 1656-22-80      22    80.00       2344.    
  4189 1656-31-351     31    351.0       2319.    
  4190 1656-37-343     37    343.0       2281.    
  4191 1656-55-360     55    360.0       2198.    
  4192 1656-61-42      61    42.00       2155.    
  4193 1656-66-56      66    56.00       2179.    
  4194 1656-71-33      71    33.00       2195.    
  4195 1656-71-365     71    365.0       2200.    
  4196 1655-17-89      17    89.00       2365.    
     MULTIPLE LAYERS AND PROPORTIONS :    1, 0.98       2, 0.02
  4197 1655-22-80      22    80.00       2348.    
     MULTIPLE LAYERS AND PROPORTIONS :    1, 0.98       2, 0.02
  4198 1655-42-355     42    355.0       2271.    
     MULTIPLE LAYERS AND PROPORTIONS :    1, 0.98       2, 0.02
  4199 1655-48-364     48    364.0       2236.    
     MULTIPLE LAYERS AND PROPORTIONS :    1, 0.98       2, 0.02
  4200 1651-42-362     42    362.0       2268.    
  4201 1651-48-355     48    355.0       2239.    
  4202 1657-60-349     60    349.0       2162.    
     MULTIPLE LAYERS AND PROPORTIONS :    2, 0.88       3, 0.12
  4203 1657-66-56      66    56.00       2177.    
     MULTIPLE LAYERS AND PROPORTIONS :    2, 0.88       3, 0.12
  4204 1657-71-32      71    32.00       2193.    
     MULTIPLE LAYERS AND PROPORTIONS :    2, 0.88       3, 0.12
  4205 1657-71-365     71    365.0       2198.    
     MULTIPLE LAYERS AND PROPORTIONS :    2, 0.88       3, 0.12
  4206 1614-12-96      12    96.00       2380.    
  4207 1614-17-89      17    89.00       2369.    
  4208 1614-22-80      22    80.00       2347.    
  4209 1615-17-89      17    89.00       2366.    
  4210 1615-22-80      22    80.00       2347.    
  4211 1615-42-356     42    356.0       2273.    
  4212 1615-48-355     48    355.0       2242.    
  4213 1615-56-20      56    20.00       2207.    
  4214 1615-61-31      61    31.00       2163.    
  4215 1615-66-56      66    56.00       2186.    
  4216 1615-71-33      71    33.00       2200.    
  4217 1615-71-365     71    365.0       2204.    
  4218 1611-42-356     42    356.0       2272.    
     MULTIPLE LAYERS AND PROPORTIONS :    1, 0.19       2, 0.81
  4219 1611-48-355     48    355.0       2241.    
     MULTIPLE LAYERS AND PROPORTIONS :    1, 0.19       2, 0.81
  4220 1611-56-20      56    20.00       2207.    
     MULTIPLE LAYERS AND PROPORTIONS :    1, 0.19       2, 0.81
  4221 1611-61-31      61    31.00       2163.    
     MULTIPLE LAYERS AND PROPORTIONS :    1, 0.19       2, 0.81
  4222 1611-66-56      66    56.00       2185.    
     MULTIPLE LAYERS AND PROPORTIONS :    1, 0.19       2, 0.81
  4223 1611-71-33      71    33.00       2199.    
     MULTIPLE LAYERS AND PROPORTIONS :    1, 0.19       2, 0.81
  4224 1611-71-365     71    365.0       2204.    
     MULTIPLE LAYERS AND PROPORTIONS :    1, 0.19       2, 0.81
  4225 1708-42-357     42    357.0       2272.    
     MULTIPLE LAYERS AND PROPORTIONS :    1, 0.49       2, 0.51
  4226 1708-48-341     48    341.0       2223.    
     MULTIPLE LAYERS AND PROPORTIONS :    1, 0.49       2, 0.51
  4227 1693-17-87      17    87.00       2379.    
  4228 1693-22-79      22    79.00       2362.    
  4229 1693-42-356     42    356.0       2271.    
  4230 1693-48-356     48    356.0       2236.    
  4231 1687-42-356     42    356.0       2273.    
     MULTIPLE LAYERS AND PROPORTIONS :    1, 0.19       2, 0.81
  4232 1687-48-356     48    356.0       2238.    
     MULTIPLE LAYERS AND PROPORTIONS :    1, 0.19       2, 0.81
  4233 1687-56-27      56    27.00       2207.    
     MULTIPLE LAYERS AND PROPORTIONS :    1, 0.19       2, 0.81
  4234 1687-61-26      61    26.00       2181.    
     MULTIPLE LAYERS AND PROPORTIONS :    1, 0.19       2, 0.81
  4235 1687-66-56      66    56.00       2192.    
     MULTIPLE LAYERS AND PROPORTIONS :    1, 0.19       2, 0.81
  4236 1687-71-33      71    33.00       2207.    
     MULTIPLE LAYERS AND PROPORTIONS :    1, 0.19       2, 0.81
  4237 1687-71-365     71    365.0       2212.    
     MULTIPLE LAYERS AND PROPORTIONS :    1, 0.19       2, 0.81
  4238 1681-17-87      17    87.00       2373.    
  4239 1681-22-79      22    79.00       2354.    
  4240 1681-26-294     26    294.0       2343.    
  4241 1681-48-356     48    356.0       2235.    
  4242 1681-66-56      66    56.00       2184.    
  4243 1681-71-33      71    33.00       2201.    
  4244 1681-71-365     71    365.0       2202.    
  4245 1688-42-356     42    356.0       2269.    
     MULTIPLE LAYERS AND PROPORTIONS :    1, 0.16       2, 0.84
  4246 1688-48-356     48    356.0       2235.    
     MULTIPLE LAYERS AND PROPORTIONS :    1, 0.16       2, 0.84
  4247 1688-55-364     55    364.0       2210.    
     MULTIPLE LAYERS AND PROPORTIONS :    1, 0.16       2, 0.84
  4248 1688-61-21      61    21.00       2182.    
     MULTIPLE LAYERS AND PROPORTIONS :    1, 0.16       2, 0.84
  4249 1688-66-56      66    56.00       2184.    
     MULTIPLE LAYERS AND PROPORTIONS :    1, 0.16       2, 0.84
  4250 1688-71-33      71    33.00       2201.    
     MULTIPLE LAYERS AND PROPORTIONS :    1, 0.16       2, 0.84
  4251 1688-71-365     71    365.0       2203.    
     MULTIPLE LAYERS AND PROPORTIONS :    1, 0.16       2, 0.84
  4252 1596-12-96      12    96.00       2385.    
  4253 1596-22-81      22    81.00       2353.    
  4254 1596-42-356     42    356.0       2271.    
  4255 1621-42-356     42    356.0       2275.    
     MULTIPLE LAYERS AND PROPORTIONS :    1, 0.46       2, 0.54
  4256 1621-48-356     48    356.0       2242.    
     MULTIPLE LAYERS AND PROPORTIONS :    1, 0.46       2, 0.54
  4257 1621-56-6       56    6.000       2216.    
     MULTIPLE LAYERS AND PROPORTIONS :    1, 0.46       2, 0.54
  4258 1621-61-42      61    42.00       2165.    
     MULTIPLE LAYERS AND PROPORTIONS :    1, 0.46       2, 0.54
  4259 1621-65-355     65    355.0       2189.    
     MULTIPLE LAYERS AND PROPORTIONS :    1, 0.46       2, 0.54
  4260 1621-71-33      71    33.00       2206.    
     MULTIPLE LAYERS AND PROPORTIONS :    1, 0.46       2, 0.54
  4261 1621-71-365     71    365.0       2209.    
     MULTIPLE LAYERS AND PROPORTIONS :    1, 0.46       2, 0.54
  4262 1605-11-45      11    45.00       2405.    
  4263 1630-17-87      17    87.00       2382.    
  4264 1630-22-79      22    79.00       2366.    
  4265 1630-42-355     42    355.0       2277.    
  4266 1630-48-356     48    356.0       2242.    
  4267 1630-66-59      66    59.00       2198.    
  4268 1630-71-33      71    33.00       2210.    
  4269 1630-71-365     71    365.0       2211.    
  4270 1629-42-355     42    355.0       2274.    
  4271 1629-48-356     48    356.0       2242.    
  4272 1629-56-9       56    9.000       2225.    
  4273 1629-61-21      61    21.00       2198.    
  4274 1629-66-59      66    59.00       2199.    
  4275 1629-71-33      71    33.00       2211.    
  4276 1629-71-365     71    365.0       2213.    
  4277 1683-22-79      22    79.00       2379.    
     MULTIPLE LAYERS AND PROPORTIONS :    1, 0.71       2, 0.29
  4278 1683-26-349     26    349.0       2360.    
     MULTIPLE LAYERS AND PROPORTIONS :    1, 0.71       2, 0.29
  4279 1683-42-355     42    355.0       2286.    
     MULTIPLE LAYERS AND PROPORTIONS :    1, 0.71       2, 0.29
  4280 1683-48-355     48    355.0       2256.    
  4281 1683-56-27      56    27.00       2237.    
  4282 1683-60-349     60    349.0       2213.    
  4283 1683-66-54      66    54.00       2213.    
     MULTIPLE LAYERS AND PROPORTIONS :    1, 0.71       2, 0.29
  4284 1679-42-355     42    355.0       2286.    
  4285 1679-48-355     48    355.0       2251.    
  4286 1679-56-27      56    27.00       2238.    
  4287 1679-61-11      61    11.00       2213.    
  4288 1680-66-54      66    54.00       2212.    
  4289 1654-42-355     42    355.0       2280.    
  4290 1654-48-355     48    355.0       2244.    
  4291 1654-56-27      56    27.00       2225.    
  4292 1654-61-14      61    14.00       2198.    
  4293 1654-66-54      66    54.00       2206.    
  4294 1654-71-64      71    64.00       2218.    
  4295 1654-71-365     71    365.0       2221.    
  4296 1660-42-355     42    355.0       2279.    
  4297 1660-48-355     48    355.0       2243.    
  4298 1660-56-27      56    27.00       2224.    
  4299 1660-60-349     60    349.0       2198.    
  4300 1660-66-54      66    54.00       2205.    
  4301 1660-71-64      71    64.00       2218.    
  4302 1660-71-365     71    365.0       2221.    
  4303 1554-22-81      22    81.00       2379.    
     MULTIPLE LAYERS AND PROPORTIONS :    1, 0.91       2, 0.09
  4304 1554-27-15      27    15.00       2357.    
     MULTIPLE LAYERS AND PROPORTIONS :    1, 0.91       2, 0.09
  4305 1554-32-60      32    60.00       2340.    
     MULTIPLE LAYERS AND PROPORTIONS :    1, 0.91       2, 0.09
  4306 1554-56-26      56    26.00       2254.    
  4307 1554-61-12      61    12.00       2230.    
  4308 1554-66-59      66    59.00       2227.    
  4309 1554-71-54      71    54.00       2233.    
  4310 1554-71-365     71    365.0       2236.    
  4311 1504-22-60      22    60.00       2375.    
     MULTIPLE LAYERS AND PROPORTIONS :    1, 0.89       2, 0.11
  4312 1548-7-158       7    158.0       2406.    
  4313 1548-11-82      11    82.00       2402.    
  4314 1548-17-87      17    87.00       2380.    
  4315 1548-22-81      22    81.00       2365.    
  4316 1548-26-278     26    278.0       2343.    
  4317 1550-48-365     48    365.0       2255.    
     MULTIPLE LAYERS AND PROPORTIONS :    1, 0.39       2, 0.61
  4318 1550-56-6       56    6.000       2225.    
     MULTIPLE LAYERS AND PROPORTIONS :    1, 0.39       2, 0.61
  4319 1550-61-27      61    27.00       2193.    
     MULTIPLE LAYERS AND PROPORTIONS :    1, 0.39       2, 0.61
  4320 1550-66-28      66    28.00       2206.    
     MULTIPLE LAYERS AND PROPORTIONS :    1, 0.39       2, 0.61
  4321 1550-71-13      71    13.00       2215.    
     MULTIPLE LAYERS AND PROPORTIONS :    1, 0.39       2, 0.61
  4322 1550-71-365     71    365.0       2219.    
     MULTIPLE LAYERS AND PROPORTIONS :    1, 0.39       2, 0.61
  4323 1559-66-46      66    46.00       2194.    
  4324 1559-71-365     71    365.0       2207.    
  4325 1569-32-60      32    60.00       2330.    
  4326 1569-37-89      37    89.00       2305.    
  4327 1569-42-356     42    356.0       2281.    
  4328 1569-48-355     48    355.0       2252.    
  4329 1569-56-26      56    26.00       2222.    
  4330 1569-61-24      61    24.00       2180.    
  4331 1569-66-28      66    28.00       2199.    
  4332 1569-71-365     71    365.0       2215.    
  4333 1540-17-86      17    86.00       2377.    
  4334 1540-22-81      22    81.00       2362.    
  4335 1540-26-279     26    279.0       2342.    
  4336 1540-42-355     42    355.0       2284.    
  4337 1540-48-355     48    355.0       2257.    
  4338 1540-56-26      56    26.00       2232.    
  4339 1540-60-350     60    350.0       2200.    
  4340 1540-66-28      66    28.00       2205.    
  4341 1540-71-365     71    365.0       2218.    
  4342 1526-17-87      17    87.00       2378.    
  4343 1526-22-81      22    81.00       2363.    
  4344 1526-26-349     26    349.0       2384.    
  4345 1526-32-60      32    60.00       2329.    
  4346 1526-42-356     42    356.0       2289.    
  4347 1526-48-355     48    355.0       2269.    
  4348 1526-56-26      56    26.00       2243.    
  4349 1526-60-350     60    350.0       2211.    
  4350 1526-65-355     65    355.0       2210.    
  4351 1526-71-362     70    362.0       2219.    
  4352 1518-42-357     42    357.0       2288.    
     MULTIPLE LAYERS AND PROPORTIONS :    1, 0.24       2, 0.76
  4353 1517-71-53      71    53.00       2226.    
  4354 1517-71-365     71    365.0       2228.    
  4355 1564-56-26      56    26.00       2224.    
  4356 1564-71-365     71    365.0       2211.    
  4357 1552-12-59      12    59.00       2387.    
  4358 1552-17-85      17    85.00       2369.    
  4359 1552-22-80      22    80.00       2348.    
  4360 1557-42-356     42    356.0       2279.    
  4361 1557-48-355     48    355.0       2255.    
  4362 1557-56-20      56    20.00       2229.    
  4363 1557-71-13      71    13.00       2210.    
  4364 1557-71-365     71    365.0       2214.    
  4365 1570-2-98        2    98.00       2390.    
  4366 1631-12-96      12    96.00       2393.    
  4367 1631-17-87      17    87.00       2379.    
  4368 1631-22-80      22    80.00       2357.    
  4369 1631-26-279     26    279.0       2340.    
  4370 1631-42-355     42    355.0       2287.    
  4371 1631-48-355     48    355.0       2262.    
  4372 1631-56-26      56    26.00       2241.    
  4373 1631-66-32      66    32.00       2212.    
  4374 1631-71-33      71    33.00       2220.    
  4375 1631-71-365     71    365.0       2226.    
  4376 1519-42-355     42    355.0       2288.    
     MULTIPLE LAYERS AND PROPORTIONS :    1, 0.11       2, 0.89
  4377 1519-48-355     48    355.0       2265.    
     MULTIPLE LAYERS AND PROPORTIONS :    1, 0.11       2, 0.89
  4378 1519-56-20      56    20.00       2242.    
     MULTIPLE LAYERS AND PROPORTIONS :    1, 0.11       2, 0.89
  4379 1519-61-18      61    18.00       2212.    
     MULTIPLE LAYERS AND PROPORTIONS :    1, 0.11       2, 0.89
  4380 1519-66-32      66    32.00       2212.    
     MULTIPLE LAYERS AND PROPORTIONS :    1, 0.11       2, 0.89
  4381 1519-71-33      71    33.00       2222.    
     MULTIPLE LAYERS AND PROPORTIONS :    1, 0.11       2, 0.89
  4382 1519-71-365     71    365.0       2225.    
     MULTIPLE LAYERS AND PROPORTIONS :    1, 0.11       2, 0.89
  4383 1542-56-20      56    20.00       2230.    
  4384 1542-60-350     60    350.0       2189.    
  4385 1542-66-54      66    54.00       2201.    
  4386 1542-71-13      71    13.00       2211.    
  4387 1542-71-365     71    365.0       2215.    
  4388 1520-17-87      17    87.00       2376.    
  4389 1520-22-80      22    80.00       2358.    
  4390 1520-32-60      32    60.00       2328.    
  4391 1520-42-356     42    356.0       2288.    
  4392 1597-56-27      56    27.00       2221.    
  4393 1597-66-26      66    26.00       2193.    
  4394 1597-71-28      71    28.00       2205.    
  4395 1597-71-365     71    365.0       2208.    
  4396 1581-11-256     11    256.0       2383.    
  4397 1583-56-27      56    27.00       2226.    
  4398 1583-66-26      66    26.00       2197.    
  4399 1583-71-28      71    28.00       2207.    
  4400 1583-71-29      71    29.00       2209.    
  4401 1583-71-365     71    365.0       2210.    
  4402 1565-71-28      71    28.00       2215.    
  4403 1565-71-365     71    365.0       2217.    
  4404 1595-11-257     11    257.0       2369.    
  4405 1533-8-65        8    65.00       2373.    
  4406 1533-12-96      12    96.00       2366.    
  4407 1533-17-82      17    82.00       2354.    
  4408 1533-22-80      22    80.00       2339.    
  4409 1533-27-15      27    15.00       2324.    
  4410 1533-42-363     42    363.0       2280.    
  4411 1537-42-363     42    363.0       2277.    
  4412 1537-48-357     48    357.0       2262.    
  4413 1541-66-55      66    55.00       2208.    
  4414 1541-71-76      71    76.00       2217.    
  4415 1541-71-365     71    365.0       2216.    
  4416 1510-42-357     42    357.0       2288.    
  4417 1510-48-337     48    337.0       2274.    
  4418 1510-56-18      56    18.00       2247.    
  4419 1510-60-333     60    333.0       2215.    
  4420 1510-65-299     65    299.0       2215.    
  4421 1510-71-11      71    11.00       2226.    
  4422 1510-71-365     71    365.0       2232.    
  4423 1511-31-351     31    351.0       2321.    
  4424 1511-37-27      37    27.00       2298.    
  4425 1511-42-357     42    357.0       2285.    
  4426 1511-48-337     48    337.0       2270.    
  4427 1511-56-18      56    18.00       2243.    
  4428 1511-60-333     60    333.0       2210.    
  4429 1511-65-299     65    299.0       2210.    
  4430 1511-71-12      71    12.00       2223.    
  4431 1511-71-365     71    365.0       2231.    
  4432 1512-31-351     31    351.0       2313.    
  4433 1512-42-357     42    357.0       2281.    
  4434 1512-48-337     48    337.0       2266.    
  4435 1512-56-18      56    18.00       2244.    
  4436 1513-31-351     31    351.0       2313.    
  4437 1513-42-357     42    357.0       2279.    
  4438 1513-48-337     48    337.0       2262.    
  4439 1513-56-18      56    18.00       2241.    
  4440 1513-60-333     60    333.0       2223.    
  4441 1513-65-299     65    299.0       2216.    
  4442 1513-71-11      71    11.00       2225.    
  4443 1513-71-365     71    365.0       2229.    
  4444 1505-66-26      66    26.00       2212.    
  4445 1505-71-53      71    53.00       2224.    
  4446 1505-71-365     71    365.0       2227.    
  4447 1546-8-65        8    65.00       2365.    
  4448 1546-10-31      10    31.00       2359.    
  4449 1546-17-82      17    82.00       2340.    
  4450 1546-22-81      22    81.00       2325.    
  4451 1551-42-363     42    363.0       2269.    
     MULTIPLE LAYERS AND PROPORTIONS :    1, 0.51       2, 0.49
  4452 1551-48-357     48    357.0       2247.    
     MULTIPLE LAYERS AND PROPORTIONS :    1, 0.51       2, 0.49
  4453 1551-56-13      56    13.00       2223.    
     MULTIPLE LAYERS AND PROPORTIONS :    1, 0.51       2, 0.49
  4454 1551-61-31      61    31.00       2211.    
     MULTIPLE LAYERS AND PROPORTIONS :    1, 0.51       2, 0.49
  4455 1551-66-19      66    19.00       2205.    
     MULTIPLE LAYERS AND PROPORTIONS :    1, 0.51       2, 0.49
  4456 1551-71-32      71    32.00       2214.    
     MULTIPLE LAYERS AND PROPORTIONS :    1, 0.51       2, 0.49
  4457 1551-71-365     71    365.0       2217.    
     MULTIPLE LAYERS AND PROPORTIONS :    1, 0.51       2, 0.49
  4458 1525-10-154     10    154.0       2356.    
  4459 1525-22-83      22    83.00       2327.    
  4460 1525-32-60      32    60.00       2295.    
  4461 1525-42-363     42    363.0       2270.    
  4462 1525-56-25      56    25.00       2233.    
  4463 1525-60-351     60    351.0       2221.    
  4464 1525-66-1       66    1.000       2214.    
  4465 1525-71-32      71    32.00       2220.    
  4466 1525-71-365     71    365.0       2222.    
  4467 1813-17-82      17    82.00       2346.    
  4468 1813-22-82      22    82.00       2331.    
  4469 1813-26-294     26    294.0       2315.    
  4470 1813-42-363     42    363.0       2274.    
  4471 1813-48-357     48    357.0       2254.    
  4472 1813-56-25      56    25.00       2232.    
  4473 1813-60-351     60    351.0       2216.    
  4474 1813-66-19      66    19.00       2211.    
  4475 1813-71-32      71    32.00       2219.    
  4476 1813-71-365     71    365.0       2221.    
  4477 1538-10-154     10    154.0       2366.    
     MULTIPLE LAYERS AND PROPORTIONS :    1, 0.14       2, 0.86
  4478 1538-17-86      17    86.00       2350.    
     MULTIPLE LAYERS AND PROPORTIONS :    1, 0.14       2, 0.86
  4479 1538-22-82      22    82.00       2333.    
     MULTIPLE LAYERS AND PROPORTIONS :    1, 0.14       2, 0.86
  4480 1538-42-363     42    363.0       2276.    
     MULTIPLE LAYERS AND PROPORTIONS :    1, 0.14       2, 0.86
  4481 1567-12-59      12    59.00       2335.    
     MULTIPLE LAYERS AND PROPORTIONS :    1, 0.71       2, 0.29
  4482 1567-17-85      17    85.00       2326.    
     MULTIPLE LAYERS AND PROPORTIONS :    1, 0.71       2, 0.29
  4483 1567-22-53      22    53.00       2311.    
     MULTIPLE LAYERS AND PROPORTIONS :    1, 0.71       2, 0.29
  4484 1567-27-15      27    15.00       2301.    
     MULTIPLE LAYERS AND PROPORTIONS :    1, 0.71       2, 0.29
  4485 1567-32-65      32    65.00       2290.    
     MULTIPLE LAYERS AND PROPORTIONS :    1, 0.71       2, 0.29
  4486 1578-42-362     42    362.0       2258.    
  4487 1579-34-182     34    182.0       2273.    
     MULTIPLE LAYERS AND PROPORTIONS :    1, 0.20       2, 0.80
  4488 1466-12-96      12    96.00       2355.    
  4489 1466-17-89      17    89.00       2342.    
  4490 1466-32-60      32    60.00       2285.    
  4491 1466-37-89      37    89.00       2283.    
  4492 1466-42-363     42    363.0       2278.    
  4493 1466-48-357     48    357.0       2273.    
  4494 1466-56-25      56    25.00       2260.    
  4495 1466-71-365     71    365.0       2262.    
  4496 1467-17-89      17    89.00       2339.    
  4497 1467-22-60      22    60.00       2341.    
  4498 1467-48-357     48    357.0       2284.    
  4499 1467-56-25      56    25.00       2271.    
  4500 1467-60-351     60    351.0       2249.    
  4501 1467-65-355     65    355.0       2244.    
  4502 1467-71-52      71    52.00       2248.    
  4503 1467-71-365     71    365.0       2251.    
  4504 1470-17-82      17    82.00       2358.    
  4505 1470-22-82      22    82.00       2341.    
  4506 1470-42-362     42    362.0       2281.    
  4507 1470-48-357     48    357.0       2261.    
  4508 1470-56-18      56    18.00       2245.    
  4509 1470-60-308     60    308.0       2248.    
  4510 1470-71-365     71    365.0       2236.    
  4511 1500-27-60      27    60.00       2313.    
     MULTIPLE LAYERS AND PROPORTIONS :    1, 0.32       2, 0.68
  4512 1500-42-362     42    362.0       2271.    
     MULTIPLE LAYERS AND PROPORTIONS :    1, 0.32       2, 0.68
  4513 1500-48-357     48    357.0       2256.    
     MULTIPLE LAYERS AND PROPORTIONS :    1, 0.32       2, 0.68
  4514 1500-56-25      56    25.00       2238.    
     MULTIPLE LAYERS AND PROPORTIONS :    1, 0.32       2, 0.68
  4515 1500-60-351     60    351.0       2226.    
     MULTIPLE LAYERS AND PROPORTIONS :    1, 0.32       2, 0.68
  4516 1459-11-68      11    68.00       2372.    
  4517 1459-17-82      17    82.00       2352.    
  4518 1459-22-60      22    60.00       2338.    
  4519 1459-26-293     26    293.0       2313.    
  4520 1459-42-363     42    363.0       2281.    
  4521 1459-48-357     48    357.0       2271.    
  4522 1459-56-25      56    25.00       2257.    
  4523 1459-60-351     60    351.0       2245.    
  4524 1459-66-12      66    12.00       2239.    
  4525 1459-71-365     71    365.0       2240.    
  4526 1455-12-96      12    96.00       2383.    
  4527 1455-17-82      17    82.00       2366.    
  4528 1443-12-96      12    96.00       2386.    
  4529 1443-17-82      17    82.00       2368.    
  4530 1443-32-60      32    60.00       2324.    
  4531 1443-38-60      38    60.00       2317.    
  4532 1443-42-364     42    364.0       2288.    
  4533 1443-48-341     48    341.0       2308.    
  4534 1486-56-56      56    56.00       2255.    
  4535 1486-71-365     71    365.0       2233.    
  4536 1485-71-365     71    365.0       2233.    
  4537 1475-11-305     11    305.0       2358.    
  4538 1465-17-82      17    82.00       2367.    
  4539 1465-22-82      22    82.00       2351.    
  4540 1465-42-356     42    356.0       2285.    
  4541 1465-48-355     48    355.0       2273.    
  4542 1465-56-25      56    25.00       2256.    
  4543 1465-60-351     60    351.0       2237.    
  4544 1465-66-1       66    1.000       2234.    
  4545 1465-71-365     71    365.0       2240.    
  4546 1440-17-82      17    82.00       2373.    
     MULTIPLE LAYERS AND PROPORTIONS :    1, 0.14       2, 0.86
  4547 1440-22-80      22    80.00       2355.    
     MULTIPLE LAYERS AND PROPORTIONS :    1, 0.14       2, 0.86
  4548 1440-32-60      32    60.00       2326.    
     MULTIPLE LAYERS AND PROPORTIONS :    1, 0.14       2, 0.86
  4549 1440-37-90      37    90.00       2301.    
     MULTIPLE LAYERS AND PROPORTIONS :    1, 0.14       2, 0.86
  4550 1440-48-355     48    355.0       2276.    
     MULTIPLE LAYERS AND PROPORTIONS :    1, 0.14       2, 0.86
  4551 1441-11-283     11    283.0       2409.    
     MULTIPLE LAYERS AND PROPORTIONS :    1, 0.79       2, 0.21
  4552 1474-17-87      17    87.00       2384.    
  4553 1474-22-80      22    80.00       2367.    
  4554 1474-61-31      61    31.00       2235.    
  4555 1474-71-68      71    68.00       2238.    
  4556 1474-71-365     71    365.0       2238.    
  4557 1478-48-355     48    355.0       2282.    
     MULTIPLE LAYERS AND PROPORTIONS :    1, 0.27       2, 0.73
  4558 1478-56-26      56    26.00       2259.    
     MULTIPLE LAYERS AND PROPORTIONS :    1, 0.27       2, 0.73
  4559 1478-60-350     60    350.0       2238.    
     MULTIPLE LAYERS AND PROPORTIONS :    1, 0.27       2, 0.73
  4560 1478-65-355     65    355.0       2224.    
     MULTIPLE LAYERS AND PROPORTIONS :    1, 0.27       2, 0.73
  4561 1478-71-68      71    68.00       2237.    
     MULTIPLE LAYERS AND PROPORTIONS :    1, 0.27       2, 0.73
  4562 1478-71-365     71    365.0       2238.    
     MULTIPLE LAYERS AND PROPORTIONS :    1, 0.27       2, 0.73
  4563 1453-17-85      17    85.00       2382.    
  4564 1453-22-80      22    80.00       2362.    
  4565 1453-42-356     42    356.0       2296.    
  4566 1453-48-355     48    355.0       2280.    
  4567 1453-66-49      66    49.00       2244.    
  4568 1453-71-68      71    68.00       2245.    
  4569 1453-71-365     71    365.0       2244.    
  4570 1454-42-356     42    356.0       2295.    
     MULTIPLE LAYERS AND PROPORTIONS :    1, 0.11       2, 0.89
  4571 1454-48-355     48    355.0       2279.    
     MULTIPLE LAYERS AND PROPORTIONS :    1, 0.11       2, 0.89
  4572 1454-55-362     55    362.0       2264.    
     MULTIPLE LAYERS AND PROPORTIONS :    1, 0.11       2, 0.89
  4573 1454-61-31      61    31.00       2239.    
     MULTIPLE LAYERS AND PROPORTIONS :    1, 0.11       2, 0.89
  4574 1454-66-49      66    49.00       2238.    
     MULTIPLE LAYERS AND PROPORTIONS :    1, 0.11       2, 0.89
  4575 1454-71-68      71    68.00       2244.    
     MULTIPLE LAYERS AND PROPORTIONS :    1, 0.11       2, 0.89
  4576 1454-71-365     71    365.0       2244.    
     MULTIPLE LAYERS AND PROPORTIONS :    1, 0.11       2, 0.89
  4577 1447-66-49      66    49.00       2234.    
  4578 1447-71-68      71    68.00       2240.    
  4579 1447-71-365     71    365.0       2241.    
  4580 1444-42-356     42    356.0       2300.    
     MULTIPLE LAYERS AND PROPORTIONS :    1, 0.65       2, 0.35
  4581 1444-48-355     48    355.0       2280.    
     MULTIPLE LAYERS AND PROPORTIONS :    1, 0.65       2, 0.35
  4582 1444-55-362     55    362.0       2266.    
     MULTIPLE LAYERS AND PROPORTIONS :    1, 0.65       2, 0.35
  4583 1444-61-6       61    6.000       2244.    
     MULTIPLE LAYERS AND PROPORTIONS :    1, 0.65       2, 0.35
  4584 1444-66-49      66    49.00       2245.    
     MULTIPLE LAYERS AND PROPORTIONS :    1, 0.65       2, 0.35
  4585 1444-71-68      71    68.00       2248.    
     MULTIPLE LAYERS AND PROPORTIONS :    1, 0.65       2, 0.35
  4586 1444-71-365     71    365.0       2249.    
     MULTIPLE LAYERS AND PROPORTIONS :    1, 0.65       2, 0.35
  4587 1499-11-360     11    360.0       2412.    
     MULTIPLE LAYERS AND PROPORTIONS :    1, 0.37       2, 0.63
  4588 1499-17-85      17    85.00       2392.    
     MULTIPLE LAYERS AND PROPORTIONS :    1, 0.37       2, 0.63
  4589 1499-22-81      22    81.00       2373.    
     MULTIPLE LAYERS AND PROPORTIONS :    1, 0.37       2, 0.63
  4590 1499-48-355     48    355.0       2278.    
     MULTIPLE LAYERS AND PROPORTIONS :    1, 0.37       2, 0.63
  4591 1499-56-20      56    20.00       2259.    
     MULTIPLE LAYERS AND PROPORTIONS :    1, 0.37       2, 0.63
  4592 1499-60-350     60    350.0       2237.    
     MULTIPLE LAYERS AND PROPORTIONS :    1, 0.37       2, 0.63
  4593 1499-66-14      66    14.00       2227.    
     MULTIPLE LAYERS AND PROPORTIONS :    1, 0.37       2, 0.63
  4594 1499-71-64      71    64.00       2230.    
     MULTIPLE LAYERS AND PROPORTIONS :    1, 0.37       2, 0.63
  4595 1499-71-365     71    365.0       2231.    
     MULTIPLE LAYERS AND PROPORTIONS :    1, 0.37       2, 0.63
  4596 1490-66-45      66    45.00       2231.    
  4597 1490-71-64      71    64.00       2237.    
  4598 1490-71-365     71    365.0       2236.    
  4599 1436-71-64      71    64.00       2247.    
  4600 1436-71-365     71    365.0       2247.    
  4601 1488-17-87      17    87.00       2396.    
  4602 1488-22-81      22    81.00       2374.    
  4603 1488-48-350     48    350.0       2281.    
  4604 1488-56-20      56    20.00       2281.    
  4605 1502-17-85      17    85.00       2394.    
     MULTIPLE LAYERS AND PROPORTIONS :    1, 0.40       2, 0.60
  4606 1502-22-81      22    81.00       2374.    
     MULTIPLE LAYERS AND PROPORTIONS :    1, 0.40       2, 0.60
  4607 1502-48-365     48    365.0       2275.    
  4608 1502-56-20      56    20.00       2259.    
  4609 1502-60-350     60    350.0       2239.    
  4610 1502-66-46      66    46.00       2231.    
     MULTIPLE LAYERS AND PROPORTIONS :    1, 0.40       2, 0.60
  4611 1502-71-54      71    54.00       2236.    
     MULTIPLE LAYERS AND PROPORTIONS :    1, 0.40       2, 0.60
  4612 1502-71-365     71    365.0       2237.    
     MULTIPLE LAYERS AND PROPORTIONS :    1, 0.40       2, 0.60
  4613 1477-8-69        8    69.00       2422.    
  4614 1477-12-96      12    96.00       2416.    
  4615 1477-17-86      17    86.00       2396.    
  4616 1477-22-81      22    81.00       2375.    
  4617 1477-32-60      32    60.00       2339.    
  4618 1458-17-85      17    85.00       2403.    
  4619 1458-22-81      22    81.00       2374.    
  4620 1458-42-355     42    355.0       2307.    
  4621 1458-48-350     48    350.0       2294.    
  4622 1458-56-20      56    20.00       2293.    
  4623 1458-60-350     60    350.0       2267.    
  4624 1458-71-64      71    64.00       2254.    
  4625 1458-71-365     71    365.0       2254.    
  4626 1460-66-1       66    1.000       2248.    
  4627 1460-71-64      71    64.00       2252.    
  4628 1460-71-365     71    365.0       2252.    
  4629 1429-17-85      17    85.00       2413.    
     MULTIPLE LAYERS AND PROPORTIONS :    1, 0.19       2, 0.81
  4630 1429-22-81      22    81.00       2380.    
     MULTIPLE LAYERS AND PROPORTIONS :    1, 0.19       2, 0.81
  4631 1429-42-355     42    355.0       2327.    
     MULTIPLE LAYERS AND PROPORTIONS :    1, 0.19       2, 0.81
  4632 1429-48-350     48    350.0       2319.    
     MULTIPLE LAYERS AND PROPORTIONS :    1, 0.19       2, 0.81
  4633 1429-56-20      56    20.00       2319.    
     MULTIPLE LAYERS AND PROPORTIONS :    1, 0.19       2, 0.81
  4634 1429-60-350     60    350.0       2295.    
     MULTIPLE LAYERS AND PROPORTIONS :    1, 0.19       2, 0.81
  4635 1429-66-53      66    53.00       2283.    
     MULTIPLE LAYERS AND PROPORTIONS :    1, 0.19       2, 0.81
  4636 1429-71-13      71    13.00       2281.    
     MULTIPLE LAYERS AND PROPORTIONS :    1, 0.19       2, 0.81
  4637 1429-71-365     71    365.0       2281.    
     MULTIPLE LAYERS AND PROPORTIONS :    1, 0.19       2, 0.81
  4638 1431-17-85      17    85.00       2421.    
  4639 1431-22-82      22    82.00       2385.    
  4640 1431-27-63      27    63.00       2379.    
  4641 1431-32-60      32    60.00       2360.    
  4642 1431-42-355     42    355.0       2337.    
  4643 1431-48-350     48    350.0       2329.    
  4644 1431-56-20      56    20.00       2334.    
  4645 1431-60-350     60    350.0       2307.    
  4646 1431-71-13      71    13.00       2294.    
  4647 1431-71-365     71    365.0       2293.    
  4648 1392-16-363     16    363.0       2419.    
     MULTIPLE LAYERS AND PROPORTIONS :    1, 0.57       2, 0.43
  4649 1397-22-80      22    80.00       2377.    
     MULTIPLE LAYERS AND PROPORTIONS :    1, 0.60       2, 0.40
  4650 1397-42-355     42    355.0       2303.    
     MULTIPLE LAYERS AND PROPORTIONS :    1, 0.60       2, 0.40
  4651 1397-48-355     48    355.0       2297.    
     MULTIPLE LAYERS AND PROPORTIONS :    1, 0.60       2, 0.40
  4652 1397-55-361     55    361.0       2287.    
     MULTIPLE LAYERS AND PROPORTIONS :    1, 0.60       2, 0.40
  4653 1397-61-14      61    14.00       2271.    
     MULTIPLE LAYERS AND PROPORTIONS :    1, 0.60       2, 0.40
  4654 1397-66-12      66    12.00       2261.    
     MULTIPLE LAYERS AND PROPORTIONS :    1, 0.60       2, 0.40
  4655 1397-71-68      71    68.00       2263.    
     MULTIPLE LAYERS AND PROPORTIONS :    1, 0.60       2, 0.40
  4656 1397-71-365     71    365.0       2262.    
     MULTIPLE LAYERS AND PROPORTIONS :    1, 0.60       2, 0.40
  4657 1426-12-95      12    95.00       2393.    
     MULTIPLE LAYERS AND PROPORTIONS :    1, 0.10       2, 0.90
  4658 1426-17-82      17    82.00       2374.    
     MULTIPLE LAYERS AND PROPORTIONS :    1, 0.10       2, 0.90
  4659 1426-22-80      22    80.00       2353.    
     MULTIPLE LAYERS AND PROPORTIONS :    1, 0.10       2, 0.90
  4660 1426-26-288     26    288.0       2333.    
     MULTIPLE LAYERS AND PROPORTIONS :    1, 0.10       2, 0.90
  4661 1426-42-356     42    356.0       2289.    
     MULTIPLE LAYERS AND PROPORTIONS :    1, 0.10       2, 0.90
  4662 1426-48-355     48    355.0       2280.    
     MULTIPLE LAYERS AND PROPORTIONS :    1, 0.10       2, 0.90
  4663 1426-55-350     55    350.0       2272.    
     MULTIPLE LAYERS AND PROPORTIONS :    1, 0.10       2, 0.90
  4664 1426-61-13      61    13.00       2254.    
     MULTIPLE LAYERS AND PROPORTIONS :    1, 0.10       2, 0.90
  4665 1426-66-12      66    12.00       2248.    
     MULTIPLE LAYERS AND PROPORTIONS :    1, 0.10       2, 0.90
  4666 1426-71-54      71    54.00       2251.    
     MULTIPLE LAYERS AND PROPORTIONS :    1, 0.10       2, 0.90
  4667 1426-71-365     71    365.0       2251.    
     MULTIPLE LAYERS AND PROPORTIONS :    1, 0.10       2, 0.90
  4668 1411-56-25      56    25.00       2327.    
  4669 1411-61-42      61    42.00       2256.    
  4670 1411-66-12      66    12.00       2261.    
  4671 1411-71-54      71    54.00       2264.    
  4672 1411-71-365     71    365.0       2265.    
  4673 1409-61-42      61    42.00       2252.    
     MULTIPLE LAYERS AND PROPORTIONS :    1, 0.97       2, 0.03
  4674 1409-66-12      66    12.00       2255.    
     MULTIPLE LAYERS AND PROPORTIONS :    1, 0.97       2, 0.03
  4675 1409-71-54      71    54.00       2259.    
     MULTIPLE LAYERS AND PROPORTIONS :    1, 0.97       2, 0.03
  4676 1409-71-365     71    365.0       2259.    
     MULTIPLE LAYERS AND PROPORTIONS :    1, 0.97       2, 0.03
  4677 1390-71-68      71    68.00       2273.    
     MULTIPLE LAYERS AND PROPORTIONS :    1, 0.42       2, 0.58
  4678 1390-71-362     71    362.0       2274.    
     MULTIPLE LAYERS AND PROPORTIONS :    1, 0.42       2, 0.58
  4679 1416-71-1       71    1.000       2345.    
     MULTIPLE LAYERS AND PROPORTIONS :    1, 0.72       2, 0.28
  4680 1372-66-5       66    5.000       2260.    
  4681 1372-71-68      71    68.00       2266.    
  4682 1372-71-362     71    362.0       2267.    
  4683 1312-12-265     12    265.0       2428.    
  4684 1332-71-13      71    13.00       2268.    
  4685 1332-71-362     71    362.0       2269.    
  4686 1359-32-69      32    69.00       2369.    
     MULTIPLE LAYERS AND PROPORTIONS :    1, 0.54       2, 0.46
  4687 1359-37-95      37    95.00       2357.    
     MULTIPLE LAYERS AND PROPORTIONS :    1, 0.54       2, 0.46
  4688 1359-42-356     42    356.0       2342.    
     MULTIPLE LAYERS AND PROPORTIONS :    1, 0.54       2, 0.46
  4689 1359-48-334     48    334.0       2340.    
     MULTIPLE LAYERS AND PROPORTIONS :    1, 0.54       2, 0.46
  4690 1359-56-19      56    19.00       2336.    
     MULTIPLE LAYERS AND PROPORTIONS :    1, 0.54       2, 0.46
  4691 1359-60-321     60    321.0       2328.    
     MULTIPLE LAYERS AND PROPORTIONS :    1, 0.54       2, 0.46
  4692 1359-65-298     65    298.0       2316.    
     MULTIPLE LAYERS AND PROPORTIONS :    1, 0.54       2, 0.46
  4693 1359-71-14      71    14.00       2311.    
     MULTIPLE LAYERS AND PROPORTIONS :    1, 0.54       2, 0.46
  4694 1359-71-365     71    365.0       2310.    
     MULTIPLE LAYERS AND PROPORTIONS :    1, 0.54       2, 0.46
  4695 1333-7-28        7    28.00       2444.    
     MULTIPLE LAYERS AND PROPORTIONS :    1, 0.51       2, 0.49
  4696 1333-12-95      12    95.00       2441.    
     MULTIPLE LAYERS AND PROPORTIONS :    1, 0.51       2, 0.49
  4697 1333-17-87      17    87.00       2429.    
     MULTIPLE LAYERS AND PROPORTIONS :    1, 0.51       2, 0.49
  4698 1333-32-69      32    69.00       2376.    
     MULTIPLE LAYERS AND PROPORTIONS :    1, 0.51       2, 0.49
  4699 1333-56-19      56    19.00       2338.    
  4700 1333-61-60      61    60.00       2326.    
  4701 1333-66-25      66    25.00       2318.    
  4702 1355-32-69      32    69.00       2393.    
  4703 1355-37-95      37    95.00       2380.    
  4704 1355-42-356     42    356.0       2364.    
  4705 1355-48-344     48    344.0       2361.    
  4706 1355-56-19      56    19.00       2358.    
  4707 1355-61-60      61    60.00       2344.    
  4708 1355-66-25      66    25.00       2340.    
  4709 1355-71-40      71    40.00       2336.    
  4710 1295-32-69      32    69.00       2390.    
  4711 1295-37-95      37    95.00       2371.    
  4712 1295-42-355     42    355.0       2349.    
  4713 1295-56-19      56    19.00       2349.    
  4714 1295-61-60      61    60.00       2339.    
  4715 1289-48-344     48    344.0       2368.    
  4716 1289-56-20      56    20.00       2364.    
  4717 1289-61-60      61    60.00       2350.    
  4718 1289-66-25      66    25.00       2344.    
  4719 1289-71-40      71    40.00       2343.    
  4720 1856-33-79      33    79.00       2578.    
  4721 1866-42-356     42    356.0       2576.    
  4722 1866-48-348     48    348.0       2579.    
  4723 1866-55-347     55    347.0       2585.    
  4724 1866-60-356     60    356.0       2566.    
  4725 1866-66-5       66    5.000       2562.    
     MULTIPLE LAYERS AND PROPORTIONS :    1, 0.49       2, 0.51
  4726 1866-71-39      71    39.00       2575.    
     MULTIPLE LAYERS AND PROPORTIONS :    1, 0.49       2, 0.51
  4727 1866-71-41      71    41.00       2576.    
     MULTIPLE LAYERS AND PROPORTIONS :    1, 0.49       2, 0.51
  4728 1866-71-365     71    365.0       2573.    
     MULTIPLE LAYERS AND PROPORTIONS :    1, 0.49       2, 0.51
  4729 1859-55-347     55    347.0       2584.    
  4730 1859-66-33      66    33.00       2569.    
     MULTIPLE LAYERS AND PROPORTIONS :    1, 0.48       2, 0.52
  4731 1860-42-356     42    356.0       2576.    
  4732 1860-48-348     48    348.0       2583.    
  4733 1860-56-5       56    5.000       2587.    
  4734 1860-66-5       66    5.000       2561.    
  4735 1860-71-365     71    365.0       2572.    
  4736 1867-66-5       66    5.000       2564.    
  4737 1867-71-365     71    365.0       2574.    
  4738 1855-66-5       66    5.000       2562.    
  4739 1855-71-365     71    365.0       2571.    
  4740 1876-42-362     42    362.0       2512.    
  4741 1876-48-338     48    338.0       2505.    
  4742 1876-56-16      56    16.00       2507.    
  4743 1750-56-16      56    16.00       2540.    
  4744 1750-61-53      61    53.00       2526.    
  4745 1750-66-27      66    27.00       2459.    
  4746 1730-56-16      56    16.00       2519.    
  4747 1730-61-53      61    53.00       2488.    
  4748 1730-66-31      66    31.00       2447.    
  4749 1835-22-32      22    32.00       2566.    
  4750 1835-27-12      27    12.00       2578.    
  4751 1831-1-365       1    365.0       2572.    
 Observation within a steady-state time step has been moved to the end of the time step.
  4752 1801-22-32      22    32.00       2571.    
  4753 1801-27-12      27    12.00       2578.    
  4754 1739-56-16      56    16.00       2543.    
  4755 1739-61-53      61    53.00       2512.    
  4756 1739-66-27      66    27.00       2470.    
  4757 1725-66-12      66    12.00       2427.    
  4758 1725-71-365     71    365.0       2444.    
  4759 1761-27-17      27    17.00       2560.    
  4760 1761-32-60      32    60.00       2546.    
  4761 1761-42-355     42    355.0       2538.    
  4762 1761-48-350     48    350.0       2547.    
  4763 1761-56-6       56    6.000       2565.    
  4764 1761-66-1       66    1.000       2523.    
  4765 1761-71-35      71    35.00       2531.    
  4766 1761-71-365     71    365.0       2527.    
  4767 1774-48-365     48    365.0       2512.    
     MULTIPLE LAYERS AND PROPORTIONS :    2, 0.68       3, 0.32
  4768 1774-56-5       56    5.000       2517.    
     MULTIPLE LAYERS AND PROPORTIONS :    2, 0.68       3, 0.32
  4769 1774-66-1       66    1.000       2441.    
     MULTIPLE LAYERS AND PROPORTIONS :    2, 0.68       3, 0.32
  4770 1774-71-35      71    35.00       2455.    
     MULTIPLE LAYERS AND PROPORTIONS :    2, 0.68       3, 0.32
  4771 1774-71-365     71    365.0       2470.    
     MULTIPLE LAYERS AND PROPORTIONS :    2, 0.68       3, 0.32
  4772 1740-1-365       1    365.0       2556.    
 Observation within a steady-state time step has been moved to the end of the time step.
  4773 1740-16-356     16    356.0       2564.    
  4774 1853-42-357     42    357.0       2500.    
     MULTIPLE LAYERS AND PROPORTIONS :    1, 0.75       2, 0.25
  4775 1850-48-338     48    338.0       2494.    
  4776 1850-56-16      56    16.00       2506.    
  4777 1850-66-31      66    31.00       2432.    
  4778 1850-71-40      71    40.00       2432.    
  4779 1895-16-362     16    362.0       2491.    
  4780 1895-22-32      22    32.00       2496.    
  4781 1895-27-12      27    12.00       2495.    
  4782 1737-43-32      43    32.00       2452.    
  4783 1737-48-355     48    355.0       2449.    
  4784 1737-56-5       56    5.000       2450.    
  4785 1737-61-26      61    26.00       2416.    
  4786 1737-66-28      66    28.00       2390.    
  4787 1737-71-35      71    35.00       2403.    
  4788 1737-71-365     71    365.0       2410.    
  4789 1802-1-276       1    276.0       2517.    
 Observation within a steady-state time step has been moved to the end of the time step.
  4790 1802-4-104       4    104.0       2524.    
  4791 1746-42-355     42    355.0       2492.    
  4792 1746-48-355     48    355.0       2485.    
  4793 1746-56-11      56    11.00       2478.    
  4794 1746-61-33      61    33.00       2448.    
  4795 1746-66-28      66    28.00       2423.    
  4796 1746-71-33      71    33.00       2429.    
  4797 1746-71-344     71    344.0       2436.    
  4798 1940-42-355     42    355.0       2460.    
     MULTIPLE LAYERS AND PROPORTIONS :    1, 0.24       2, 0.76
  4799 1940-48-355     48    355.0       2452.    
     MULTIPLE LAYERS AND PROPORTIONS :    1, 0.24       2, 0.76
  4800 1940-56-5       56    5.000       2458.    
     MULTIPLE LAYERS AND PROPORTIONS :    1, 0.24       2, 0.76
  4801 1940-66-1       66    1.000       2399.    
     MULTIPLE LAYERS AND PROPORTIONS :    1, 0.24       2, 0.76
  4802 1940-71-35      71    35.00       2414.    
     MULTIPLE LAYERS AND PROPORTIONS :    1, 0.24       2, 0.76
  4803 1940-71-365     71    365.0       2425.    
     MULTIPLE LAYERS AND PROPORTIONS :    1, 0.24       2, 0.76
  4804 1925-48-355     48    355.0       2454.    
  4805 1925-56-5       56    5.000       2452.    
  4806 1925-61-26      61    26.00       2430.    
  4807 1925-66-32      66    32.00       2401.    
  4808 1925-71-35      71    35.00       2415.    
  4809 1925-71-365     71    365.0       2425.    
  4810 1733-2-93        2    93.00       2454.    
  4811 1732-12-114     12    114.0       2492.    
  4812 1732-16-362     16    362.0       2487.    
  4813 1732-27-90      27    90.00       2488.    
  4814 1732-32-60      32    60.00       2477.    
  4815 1732-42-357     42    357.0       2451.    
  4816 1732-48-341     48    341.0       2442.    
  4817 1732-56-16      56    16.00       2442.    
  4818 1809-48-355     48    355.0       2456.    
  4819 1809-55-346     55    346.0       2445.    
  4820 1809-60-364     60    364.0       2416.    
  4821 1809-66-28      66    28.00       2392.    
  4822 1809-71-39      71    39.00       2404.    
  4823 1809-71-365     71    365.0       2410.    
  4824 1731-56-5       56    5.000       2444.    
  4825 1731-60-351     60    351.0       2411.    
  4826 1731-65-364     65    364.0       2388.    
  4827 1731-71-35      71    35.00       2402.    
  4828 1731-71-365     71    365.0       2409.    
  4829 1915-56-13      56    13.00       2454.    
  4830 1915-60-351     60    351.0       2434.    
  4831 1915-66-32      66    32.00       2406.    
  4832 1915-71-55      71    55.00       2421.    
  4833 1915-71-365     71    365.0       2430.    
  4834 1869-1-365       1    365.0       2488.    
 Observation within a steady-state time step has been moved to the end of the time step.
  4835 1884-1-52        1    52.00       2488.    
 Observation within a steady-state time step has been moved to the end of the time step.
  4836 1910-66-32      66    32.00       2249.    
  4837 1910-71-365     71    365.0       2261.    
  4838 1887-66-32      66    32.00       2240.    
  4839 1887-71-365     71    365.0       2251.    
  4840 1854-66-48      66    48.00       2237.    
  4841 1885-7-322       7    322.0       2430.    
  4842 1885-12-116     12    116.0       2429.    
  4843 1790-66-48      66    48.00       2237.    
  4844 1836-66-48      66    48.00       2246.    
  4845 1783-66-48      66    48.00       2233.    
  4846 1846-48-355     48    355.0       2447.    
  4847 1846-55-327     55    327.0       2443.    
  4848 1846-61-14      61    14.00       2423.    
  4849 1846-66-48      66    48.00       2393.    
  4850 1846-71-365     71    365.0       2419.    
  4851 1845-48-355     48    355.0       2280.    
  4852 1845-55-360     55    360.0       2260.    
  4853 1845-61-11      61    11.00       2236.    
  4854 1845-66-32      66    32.00       2236.    
  4855 1845-71-365     71    365.0       2248.    
  4856 1916-56-5       56    5.000       2280.    
     MULTIPLE LAYERS AND PROPORTIONS :    1, 0.21       2, 0.79
  4857 1916-66-32      66    32.00       2252.    
     MULTIPLE LAYERS AND PROPORTIONS :    1, 0.21       2, 0.79
  4858 1916-71-365     71    365.0       2266.    
     MULTIPLE LAYERS AND PROPORTIONS :    1, 0.21       2, 0.79
  4859 1911-56-5       56    5.000       2277.    
  4860 1911-66-32      66    32.00       2249.    
  4861 1911-71-365     71    365.0       2265.    
  4862 1897-12-114     12    114.0       2444.    
  4863 1897-27-10      27    10.00       2398.    
  4864 1893-66-32      66    32.00       2242.    
  4865 1893-71-365     71    365.0       2255.    
  4866 1917-48-355     48    355.0       2276.    
  4867 1917-66-32      66    32.00       2225.    
  4868 1917-71-344     71    344.0       2242.    
  4869 1672-66-45      66    45.00       2225.    
  4870 1647-12-332     12    332.0       2378.    
  4871 1647-16-355     16    355.0       2370.    
  4872 1659-22-81      22    81.00       2389.    
     MULTIPLE LAYERS AND PROPORTIONS :    1, 0.55       2, 0.45
  4873 1659-42-356     42    356.0       2300.    
     MULTIPLE LAYERS AND PROPORTIONS :    1, 0.55       2, 0.45
  4874 1659-48-355     48    355.0       2266.    
  4875 1659-56-6       56    6.000       2251.    
  4876 1659-60-354     60    354.0       2231.    
  4877 1659-66-45      66    45.00       2228.    
     MULTIPLE LAYERS AND PROPORTIONS :    1, 0.55       2, 0.45
  4878 1659-71-365     71    365.0       2239.    
     MULTIPLE LAYERS AND PROPORTIONS :    1, 0.55       2, 0.45
  4879 1682-48-355     48    355.0       2254.    
  4880 1707-42-355     42    355.0       2288.    
  4881 1707-48-355     48    355.0       2254.    
  4882 1707-56-26      56    26.00       2242.    
  4883 1707-60-354     60    354.0       2220.    
  4884 1707-66-45      66    45.00       2218.    
  4885 1707-71-365     71    365.0       2230.    
  4886 1712-42-355     42    355.0       2287.    
  4887 1712-48-355     48    355.0       2252.    
  4888 1712-56-5       56    5.000       2241.    
  4889 1712-61-14      61    14.00       2219.    
  4890 1712-65-355     65    355.0       2216.    
  4891 1712-71-67      71    67.00       2227.    
  4892 1712-71-365     71    365.0       2230.    
  4893 1671-22-79      22    79.00       2383.    
     MULTIPLE LAYERS AND PROPORTIONS :    1, 0.72       2, 0.28
  4894 1671-42-355     42    355.0       2291.    
  4895 1671-48-355     48    355.0       2257.    
  4896 1671-56-20      56    20.00       2242.    
  4897 1627-22-82      22    82.00       2391.    
  4898 1627-32-90      32    90.00       2353.    
  4899 1627-37-90      37    90.00       2326.    
  4900 1627-42-356     42    356.0       2305.    
  4901 1627-48-350     48    350.0       2268.    
  4902 1627-55-360     55    360.0       2254.    
  4903 1627-61-12      61    12.00       2234.    
  4904 1627-66-1       66    1.000       2232.    
  4905 1627-71-53      71    53.00       2240.    
  4906 1627-71-365     71    365.0       2243.    
  4907 1607-1-276       1    276.0       2426.    
 Observation within a steady-state time step has been moved to the end of the time step.
     MULTIPLE LAYERS AND PROPORTIONS :    1, 0.88       2, 0.12
  4908 1607-6-269       6    269.0       2424.    
     MULTIPLE LAYERS AND PROPORTIONS :    1, 0.88       2, 0.12
  4909 1607-11-269     11    269.0       2418.    
     MULTIPLE LAYERS AND PROPORTIONS :    1, 0.88       2, 0.12
  4910 1598-66-45      66    45.00       2231.    
  4911 1643-27-90      27    90.00       2380.    
     MULTIPLE LAYERS AND PROPORTIONS :    1, 0.19       2, 0.81
  4912 1632-22-82      22    82.00       2403.    
  4913 1632-27-15      27    15.00       2382.    
  4914 1632-32-77      32    77.00       2361.    
  4915 1632-42-356     42    356.0       2316.    
  4916 1632-48-355     48    355.0       2282.    
  4917 1632-56-6       56    6.000       2266.    
  4918 1632-60-354     60    354.0       2245.    
  4919 1632-66-48      66    48.00       2242.    
  4920 1632-71-53      71    53.00       2250.    
  4921 1632-71-365     71    365.0       2253.    
  4922 1677-32-64      32    64.00       2477.    
  4923 1677-42-355     42    355.0       2451.    
  4924 1677-48-351     48    351.0       2439.    
  4925 1677-56-5       56    5.000       2443.    
  4926 1677-61-26      61    26.00       2407.    
  4927 1677-66-39      66    39.00       2386.    
  4928 1677-71-35      71    35.00       2403.    
  4929 1677-71-365     71    365.0       2408.    
  4930 1646-27-90      27    90.00       2489.    
  4931 1646-32-64      32    64.00       2482.    
  4932 1646-42-355     42    355.0       2446.    
  4933 1646-48-350     48    350.0       2434.    
  4934 1646-56-5       56    5.000       2437.    
  4935 1646-61-26      61    26.00       2402.    
  4936 1646-66-39      66    39.00       2382.    
  4937 1646-71-39      71    39.00       2400.    
  4938 1646-71-365     71    365.0       2406.    
  4939 1602-42-355     42    355.0       2336.    
  4940 1602-48-350     48    350.0       2264.    
  4941 1602-71-35      71    35.00       2252.    
  4942 1602-71-365     71    365.0       2254.    
  4943 1601-42-355     42    355.0       2335.    
     MULTIPLE LAYERS AND PROPORTIONS :    2, 0.90       3, 0.10
  4944 1601-48-350     48    350.0       2261.    
     MULTIPLE LAYERS AND PROPORTIONS :    2, 0.90       3, 0.10
  4945 1601-55-348     55    348.0       2268.    
     MULTIPLE LAYERS AND PROPORTIONS :    2, 0.90       3, 0.10
  4946 1601-61-14      61    14.00       2211.    
     MULTIPLE LAYERS AND PROPORTIONS :    2, 0.90       3, 0.10
  4947 1601-66-19      66    19.00       2208.    
     MULTIPLE LAYERS AND PROPORTIONS :    2, 0.90       3, 0.10
  4948 1601-71-35      71    35.00       2254.    
     MULTIPLE LAYERS AND PROPORTIONS :    2, 0.90       3, 0.10
  4949 1601-71-365     71    365.0       2255.    
  4950 1674-10-253     10    253.0       2532.    
  4951 1676-42-355     42    355.0       2484.    
  4952 1676-48-350     48    350.0       2487.    
  4953 1676-55-349     55    349.0       2473.    
  4954 1676-61-27      61    27.00       2442.    
  4955 1676-66-19      66    19.00       2415.    
  4956 1676-71-35      71    35.00       2419.    
  4957 1676-71-365     71    365.0       2429.    
  4958 1645-32-77      32    77.00       2486.    
  4959 1645-42-355     42    355.0       2454.    
  4960 1645-55-360     55    360.0       2447.    
  4961 1645-60-356     60    356.0       2411.    
  4962 1645-66-1       66    1.000       2384.    
  4963 1645-71-35      71    35.00       2400.    
  4964 1645-71-365     71    365.0       2406.    
  4965 1604-32-77      32    77.00       2471.    
  4966 1604-42-355     42    355.0       2439.    
  4967 1604-48-350     48    350.0       2422.    
  4968 1604-55-360     55    360.0       2425.    
  4969 1604-60-362     60    362.0       2397.    
  4970 1604-71-48      71    48.00       2392.    
  4971 1604-71-365     71    365.0       2295.    
  4972 1640-55-360     55    360.0       2486.    
     MULTIPLE LAYERS AND PROPORTIONS :    2, 0.86       3, 0.14
  4973 1640-60-356     60    356.0       2455.    
     MULTIPLE LAYERS AND PROPORTIONS :    2, 0.86       3, 0.14
  4974 1640-66-19      66    19.00       2415.    
     MULTIPLE LAYERS AND PROPORTIONS :    2, 0.86       3, 0.14
  4975 1640-71-22      71    22.00       2426.    
     MULTIPLE LAYERS AND PROPORTIONS :    2, 0.86       3, 0.14
  4976 1640-71-365     71    365.0       2433.    
     MULTIPLE LAYERS AND PROPORTIONS :    2, 0.86       3, 0.14
  4977 1720-66-5       66    5.000       2502.    
  4978 1720-71-22      71    22.00       2498.    
  4979 1720-71-365     71    365.0       2505.    
  4980 1706-33-318     33    318.0       2550.    
  4981 1669-7-32        7    32.00       2537.    
  4982 1669-12-106     12    106.0       2531.    
  4983 1669-32-68      32    68.00       2527.    
  4984 1669-38-60      38    60.00       2519.    
  4985 1669-42-354     42    354.0       2509.    
  4986 1622-32-68      32    68.00       2527.    
  4987 1622-38-60      38    60.00       2519.    
  4988 1622-42-354     42    354.0       2506.    
  4989 1622-48-341     48    341.0       2497.    
  4990 1622-56-17      56    17.00       2489.    
  4991 1622-61-54      61    54.00       2461.    
  4992 1622-66-32      66    32.00       2420.    
  4993 1556-61-27      61    27.00       2456.    
     MULTIPLE LAYERS AND PROPORTIONS :    2, 0.54       3, 0.46
  4994 1556-66-5       66    5.000       2432.    
     MULTIPLE LAYERS AND PROPORTIONS :    2, 0.54       3, 0.46
  4995 1556-71-22      71    22.00       2436.    
     MULTIPLE LAYERS AND PROPORTIONS :    2, 0.54       3, 0.46
  4996 1556-71-365     71    365.0       2439.    
     MULTIPLE LAYERS AND PROPORTIONS :    2, 0.54       3, 0.46
  4997 1553-7-336       7    336.0       2538.    
  4998 1553-12-106     12    106.0       2533.    
  4999 1553-42-354     42    354.0       2503.    
  5000 1553-48-341     48    341.0       2490.    
  5001 1568-33-234     33    234.0       2528.    
  5002 1568-48-341     48    341.0       2497.    
  5003 1594-71-22      71    22.00       2425.    
  5004 1594-71-365     71    365.0       2432.    
  5005 1563-32-68      32    68.00       2526.    
  5006 1563-37-48      37    48.00       2507.    
  5007 1563-42-355     42    355.0       2500.    
  5008 1563-48-348     48    348.0       2488.    
  5009 1563-56-6       56    6.000       2480.    
  5010 1553-15-99      15    99.00       2533.    
  5011 1522-42-355     42    355.0       2506.    
  5012 1522-48-348     48    348.0       2488.    
  5013 1527-55-354     55    354.0       2475.    
     MULTIPLE LAYERS AND PROPORTIONS :    2, 0.71       3, 0.29
  5014 1527-61-54      61    54.00       2451.    
     MULTIPLE LAYERS AND PROPORTIONS :    2, 0.71       3, 0.29
  5015 1527-66-32      66    32.00       2420.    
     MULTIPLE LAYERS AND PROPORTIONS :    2, 0.71       3, 0.29
  5016 1527-71-22      71    22.00       2426.    
     MULTIPLE LAYERS AND PROPORTIONS :    2, 0.71       3, 0.29
  5017 1527-71-365     71    365.0       2430.    
  5018 1589-42-355     42    355.0       2468.    
  5019 1589-48-350     48    350.0       2453.    
  5020 1589-55-360     55    360.0       2454.    
  5021 1589-61-14      61    14.00       2417.    
  5022 1589-66-32      66    32.00       2394.    
  5023 1589-71-22      71    22.00       2404.    
  5024 1589-71-365     71    365.0       2408.    
  5025 1586-32-68      32    68.00       2475.    
  5026 1586-48-356     48    356.0       2414.    
  5027 1586-56-6       56    6.000       2423.    
  5028 1586-60-356     60    356.0       2377.    
  5029 1586-66-1       66    1.000       2371.    
  5030 1586-71-35      71    35.00       2390.    
  5031 1586-71-365     71    365.0       2393.    
  5032 1532-42-355     42    355.0       2430.    
  5033 1532-48-348     48    348.0       2407.    
  5034 1532-55-354     55    354.0       2420.    
  5035 1532-61-28      61    28.00       2365.    
  5036 1532-66-46      66    46.00       2371.    
  5037 1532-71-22      71    22.00       2384.    
  5038 1532-71-365     71    365.0       2386.    
  5039 1534-42-355     42    355.0       2432.    
  5040 1534-48-348     48    348.0       2408.    
  5041 1534-55-360     55    360.0       2413.    
  5042 1534-61-5       61    5.000       2374.    
  5043 1534-66-46      66    46.00       2373.    
  5044 1534-71-35      71    35.00       2386.    
  5045 1534-71-365     71    365.0       2388.    
  5046 1524-42-355     42    355.0       2467.    
  5047 1524-48-348     48    348.0       2449.    
  5048 1524-56-6       56    6.000       2450.    
  5049 1524-60-356     60    356.0       2418.    
  5050 1524-66-1       66    1.000       2399.    
  5051 1524-71-48      71    48.00       2406.    
  5052 1524-71-365     71    365.0       2408.    
  5053 1561-21-340     21    340.0       2488.    
  5054 1561-32-64      32    64.00       2474.    
  5055 1561-42-355     42    355.0       2435.    
  5056 1561-48-350     48    350.0       2413.    
  5057 1561-55-360     55    360.0       2415.    
  5058 1561-61-26      61    26.00       2375.    
  5059 1561-66-46      66    46.00       2370.    
  5060 1561-71-39      71    39.00       2389.    
  5061 1561-71-365     71    365.0       2389.    
  5062 1571-2-94        2    94.00       2432.    
  5063 1572-48-356     48    356.0       2300.    
  5064 1572-56-6       56    6.000       2274.    
  5065 1572-61-26      61    26.00       2244.    
  5066 1572-66-12      66    12.00       2245.    
  5067 1572-71-48      71    48.00       2258.    
  5068 1572-71-365     71    365.0       2261.    
  5069 1549-21-319     21    319.0       2437.    
  5070 1549-56-6       56    6.000       2281.    
  5071 1549-60-356     60    356.0       2224.    
  5072 1549-65-350     65    350.0       2214.    
  5073 1549-71-67      71    67.00       2262.    
  5074 1549-71-365     71    365.0       2261.    
  5075 1547-27-62      27    62.00       2388.    
  5076 1521-42-355     42    355.0       2372.    
  5077 1521-48-350     48    350.0       2352.    
  5078 1521-55-360     55    360.0       2338.    
  5079 1521-60-356     60    356.0       2321.    
  5080 1521-66-46      66    46.00       2311.    
  5081 1521-71-48      71    48.00       2316.    
  5082 1521-71-365     71    365.0       2317.    
  5083 1573-48-356     48    356.0       2281.    
  5084 1573-55-360     55    360.0       2268.    
  5085 1573-60-357     60    357.0       2244.    
  5086 1573-66-54      66    54.00       2243.    
  5087 1573-71-19      71    19.00       2248.    
  5088 1573-71-365     71    365.0       2252.    
  5089 1545-32-77      32    77.00       2351.    
     MULTIPLE LAYERS AND PROPORTIONS :    1, 0.32       2, 0.68
  5090 1545-42-356     42    356.0       2319.    
  5091 1545-48-350     48    350.0       2289.    
  5092 1545-56-11      56    11.00       2270.    
  5093 1545-61-14      61    14.00       2247.    
  5094 1545-66-54      66    54.00       2248.    
  5095 1545-71-19      71    19.00       2254.    
  5096 1545-71-365     71    365.0       2257.    
  5097 1535-42-356     42    356.0       2320.    
  5098 1535-48-350     48    350.0       2292.    
  5099 1535-56-11      56    11.00       2272.    
  5100 1535-60-357     60    357.0       2251.    
  5101 1535-66-47      66    47.00       2250.    
  5102 1535-71-19      71    19.00       2256.    
  5103 1535-71-365     71    365.0       2259.    
  5104 1507-42-356     42    356.0       2326.    
  5105 1507-48-350     48    350.0       2302.    
  5106 1507-56-11      56    11.00       2271.    
  5107 1507-60-357     60    357.0       2251.    
  5108 1507-66-54      66    54.00       2262.    
  5109 1507-71-19      71    19.00       2264.    
  5110 1507-71-365     71    365.0       2267.    
  5111 1523-16-54      16    54.00       2421.    
     MULTIPLE LAYERS AND PROPORTIONS :    1, 0.70       2, 0.30
  5112 1575-22-81      22    81.00       2393.    
  5113 1575-32-77      32    77.00       2347.    
  5114 1575-42-356     42    356.0       2309.    
  5115 1575-48-350     48    350.0       2282.    
  5116 1575-55-343     55    343.0       2259.    
  5117 1575-61-11      61    11.00       2235.    
  5118 1575-71-365     71    365.0       2245.    
  5119 1577-22-81      22    81.00       2388.    
     MULTIPLE LAYERS AND PROPORTIONS :    1, 0.51       2, 0.49
  5120 1580-42-355     42    355.0       2298.    
  5121 1580-48-355     48    355.0       2264.    
  5122 1580-56-13      56    13.00       2247.    
  5123 1580-61-12      61    12.00       2227.    
  5124 1580-66-54      66    54.00       2229.    
  5125 1580-71-365     71    365.0       2239.    
  5126 1536-17-79      17    79.00       2407.    
  5127 1536-22-82      22    82.00       2382.    
  5128 1536-32-77      32    77.00       2338.    
  5129 1536-42-356     42    356.0       2301.    
  5130 1536-48-350     48    350.0       2273.    
  5131 1536-55-340     55    340.0       2255.    
  5132 1536-66-54      66    54.00       2231.    
  5133 1536-71-365     71    365.0       2239.    
  5134 1516-42-356     42    356.0       2308.    
  5135 1516-48-350     48    350.0       2286.    
  5136 1516-56-11      56    11.00       2261.    
  5137 1516-61-27      61    27.00       2234.    
  5138 1516-66-54      66    54.00       2242.    
  5139 1516-71-365     71    365.0       2249.    
  5140 1528-22-82      22    82.00       2382.    
  5141 1528-27-63      27    63.00       2368.    
  5142 1528-32-77      32    77.00       2344.    
  5143 1528-65-350     65    350.0       2242.    
  5144 1528-71-365     71    365.0       2251.    
  5145 1514-42-356     42    356.0       2309.    
  5146 1514-48-350     48    350.0       2287.    
  5147 1514-55-340     55    340.0       2267.    
  5148 1514-61-27      61    27.00       2237.    
  5149 1514-66-54      66    54.00       2245.    
  5150 1514-71-48      71    48.00       2248.    
  5151 1514-71-365     71    365.0       2252.    
  5152 1495-42-356     42    356.0       2327.    
  5153 1495-48-350     48    350.0       2304.    
  5154 1495-55-343     55    343.0       2283.    
  5155 1495-61-41      61    41.00       2259.    
  5156 1495-66-54      66    54.00       2265.    
  5157 1495-71-19      71    19.00       2266.    
  5158 1495-71-365     71    365.0       2269.    
  5159 1484-37-343     37    343.0       2324.    
  5160 1484-42-356     42    356.0       2322.    
  5161 1484-56-11      56    11.00       2270.    
  5162 1484-60-357     60    357.0       2250.    
  5163 1484-66-53      66    53.00       2257.    
  5164 1484-71-19      71    19.00       2258.    
  5165 1484-71-365     71    365.0       2265.    
  5166 1463-56-34      56    34.00       2297.    
  5167 1463-60-357     60    357.0       2276.    
  5168 1463-66-53      66    53.00       2277.    
  5169 1463-71-19      71    19.00       2276.    
  5170 1463-71-365     71    365.0       2278.    
  5171 1483-42-355     42    355.0       2409.    
  5172 1483-48-348     48    348.0       2395.    
  5173 1483-56-6       56    6.000       2382.    
  5174 1483-60-357     60    357.0       2365.    
  5175 1483-66-46      66    46.00       2356.    
  5176 1483-71-35      71    35.00       2356.    
  5177 1483-71-365     71    365.0       2356.    
  5178 1437-16-300     16    300.0       2470.    
     MULTIPLE LAYERS AND PROPORTIONS :    1, 0.61       2, 0.39
  5179 1437-22-32      22    32.00       2449.    
     MULTIPLE LAYERS AND PROPORTIONS :    1, 0.61       2, 0.39
  5180 1437-27-12      27    12.00       2454.    
     MULTIPLE LAYERS AND PROPORTIONS :    1, 0.61       2, 0.39
  5181 1438-42-362     42    362.0       2383.    
  5182 1438-56-20      56    20.00       2383.    
  5183 1438-61-53      61    53.00       2377.    
  5184 1438-66-32      66    32.00       2368.    
  5185 1438-71-40      71    40.00       2365.    
  5186 1445-27-76      27    76.00       2457.    
  5187 1445-32-55      32    55.00       2454.    
  5188 1445-42-356     42    356.0       2429.    
  5189 1445-48-348     48    348.0       2419.    
  5190 1445-55-360     55    360.0       2412.    
  5191 1445-60-357     60    357.0       2392.    
  5192 1445-66-1       66    1.000       2384.    
  5193 1445-71-35      71    35.00       2382.    
  5194 1445-71-365     71    365.0       2381.    
  5195 1489-32-63      32    63.00       2477.    
  5196 1489-42-355     42    355.0       2437.    
  5197 1489-48-348     48    348.0       2415.    
  5198 1489-55-353     55    353.0       2411.    
  5199 1489-61-28      61    28.00       2385.    
  5200 1489-66-39      66    39.00       2384.    
  5201 1489-71-22      71    22.00       2387.    
  5202 1489-71-365     71    365.0       2387.    
  5203 1469-42-355     42    355.0       2488.    
  5204 1469-48-348     48    348.0       2462.    
  5205 1469-55-357     55    357.0       2471.    
  5206 1469-61-54      61    54.00       2436.    
  5207 1494-66-46      66    46.00       2436.    
  5208 1469-71-71      71    71.00       2437.    
  5209 1469-71-365     71    365.0       2438.    
  5210 1464-12-102     12    102.0       2539.    
  5211 1464-32-63      32    63.00       2521.    
  5212 1464-42-354     42    354.0       2480.    
  5213 1439-37-90      37    90.00       2487.    
  5214 1439-42-355     42    355.0       2474.    
  5215 1439-48-348     48    348.0       2451.    
  5216 1439-56-6       56    6.000       2453.    
  5217 1439-61-28      61    28.00       2422.    
  5218 1439-66-46      66    46.00       2429.    
  5219 1439-71-71      71    71.00       2424.    
  5220 1439-71-365     71    365.0       2426.    
  5221 1435-42-355     42    355.0       2478.    
  5222 1435-48-348     48    348.0       2456.    
  5223 1435-55-361     55    361.0       2461.    
  5224 1435-61-11      61    11.00       2440.    
  5225 1435-66-49      66    49.00       2431.    
  5226 1435-71-71      71    71.00       2426.    
  5227 1435-71-365     71    365.0       2429.    
  5228 1449-37-30      37    30.00       2521.    
     MULTIPLE LAYERS AND PROPORTIONS :    2, 0.16       3, 0.84
  5229 1414-7-138       7    138.0       2553.    
  5230 1414-32-64      32    64.00       2546.    
  5231 1414-38-60      38    60.00       2536.    
  5232 1414-42-354     42    354.0       2520.    
  5233 1379-71-356     71    356.0       2481.    
  5234 1425-2-94        2    94.00       2555.    
  5235 1425-16-359     16    359.0       2546.    
  5236 1425-22-32      22    32.00       2543.    
  5237 1425-27-12      27    12.00       2529.    
  5238 1382-42-355     42    355.0       2493.    
  5239 1382-48-348     48    348.0       2482.    
  5240 1382-56-6       56    6.000       2480.    
  5241 1382-61-54      61    54.00       2469.    
  5242 1382-66-46      66    46.00       2455.    
  5243 1382-71-22      71    22.00       2447.    
  5244 1382-71-365     71    365.0       2447.    
  5245 1413-32-64      32    64.00       2464.    
     MULTIPLE LAYERS AND PROPORTIONS :    1, 0.19       2, 0.81
  5246 1413-37-48      37    48.00       2451.    
     MULTIPLE LAYERS AND PROPORTIONS :    1, 0.19       2, 0.81
  5247 1413-56-6       56    6.000       2328.    
  5248 1413-61-26      61    26.00       2424.    
  5249 1413-66-53      66    53.00       2410.    
  5250 1413-71-48      71    48.00       2401.    
  5251 1395-32-64      32    64.00       2455.    
  5252 1395-42-355     42    355.0       2427.    
  5253 1395-48-348     48    348.0       2425.    
  5254 1395-56-6       56    6.000       2418.    
  5255 1395-61-26      61    26.00       2413.    
  5256 1395-66-1       66    1.000       2404.    
  5257 1395-71-48      71    48.00       2398.    
  5258 1395-71-365     71    365.0       2396.    
  5259 1377-35-16      35    16.00       2432.    
  5260 1377-42-355     42    355.0       2423.    
  5261 1377-48-348     48    348.0       2420.    
  5262 1377-56-6       56    6.000       2414.    
  5263 1377-61-26      61    26.00       2408.    
  5264 1377-66-53      66    53.00       2401.    
  5265 1377-71-365     71    365.0       2394.    
  5266 1394-42-355     42    355.0       2458.    
  5267 1394-48-348     48    348.0       2453.    
  5268 1394-56-6       56    6.000       2446.    
  5269 1394-61-26      61    26.00       2438.    
  5270 1394-66-53      66    53.00       2427.    
  5271 1394-71-365     71    365.0       2418.    
  5272 1375-32-64      32    64.00       2490.    
  5273 1375-42-355     42    355.0       2474.    
  5274 1375-48-348     48    348.0       2471.    
  5275 1375-56-6       56    6.000       2464.    
  5276 1375-61-26      61    26.00       2457.    
  5277 1375-66-53      66    53.00       2446.    
  5278 1375-71-365     71    365.0       2437.    
  5279 1396-17-90      17    90.00       2452.    
  5280 1396-22-81      22    81.00       2425.    
  5281 1396-32-63      32    63.00       2415.    
  5282 1396-42-355     42    355.0       2389.    
  5283 1396-48-350     48    350.0       2386.    
  5284 1396-56-11      56    11.00       2379.    
  5285 1396-61-26      61    26.00       2365.    
  5286 1396-66-53      66    53.00       2360.    
  5287 1396-71-365     71    365.0       2352.    
  5288 1415-22-82      22    82.00       2419.    
  5289 1415-32-63      32    63.00       2387.    
  5290 1415-37-90      37    90.00       2374.    
  5291 1415-42-355     42    355.0       2364.    
  5292 1415-48-350     48    350.0       2358.    
  5293 1415-56-11      56    11.00       2354.    
  5294 1415-61-27      61    27.00       2338.    
  5295 1415-66-49      66    49.00       2329.    
  5296 1415-71-365     71    365.0       2322.    
  5297 1323-2-88        2    88.00       2488.    
  5298 1368-17-85      17    85.00       2462.    
     MULTIPLE LAYERS AND PROPORTIONS :    1, 0.15       2, 0.85
  5299 1368-22-81      22    81.00       2445.    
     MULTIPLE LAYERS AND PROPORTIONS :    1, 0.15       2, 0.85
  5300 1368-27-15      27    15.00       2436.    
  5301 1368-42-355     42    355.0       2399.    
  5302 1368-55-339     55    339.0       2388.    
  5303 1368-66-49      66    49.00       2374.    
     MULTIPLE LAYERS AND PROPORTIONS :    1, 0.15       2, 0.85
  5304 1368-71-365     71    365.0       2362.    
     MULTIPLE LAYERS AND PROPORTIONS :    1, 0.15       2, 0.85
  5305 1327-71-365     71    365.0       2447.    
  5306 1369-71-365     71    365.0       2420.    
  5307 1326-71-365     71    365.0       2429.    
  5308 1302-71-365     71    365.0       2442.    
  5309 1269-37-48      37    48.00       2533.    
  5310 1269-66-1       66    1.000       2514.    
  5311 1269-71-365     71    365.0       2500.    
  5312 1277-66-59      66    59.00       2516.    
  5313 1330-48-345     48    345.0       2523.    
  5314 1330-56-17      56    17.00       2523.    
  5315 1322-2-94        2    94.00       2574.    
  5316 1331-48-345     48    345.0       2533.    
  5317 1331-56-17      56    17.00       2532.    
  5318 1331-61-54      61    54.00       2528.    
  5319 1331-66-32      66    32.00       2513.    
  5320 1331-71-40      71    40.00       2500.    
  5321 1276-12-99      12    99.00       2565.    
  5322 1276-17-90      17    90.00       2570.    
  5323 1771-33-65      33    65.00       2644.    
  5324 1880-42-356     42    356.0       2637.    
  5325 1880-48-335     48    335.0       2636.    
  5326 1880-61-60      61    60.00       2632.    
  5327 1880-66-25      66    25.00       2633.    
  5328 1735-34-152     34    152.0       2644.    
  5329 1840-16-362     16    362.0       2630.    
  5330 1794-3-36        3    36.00       2640.    
  5331 1794-16-362     16    362.0       2640.    
  5332 1794-27-12      27    12.00       2642.    
  5333 1794-71-39      71    39.00       2640.    
  5334 1794-71-365     71    365.0       2635.    
  5335 1796-16-362     16    362.0       2635.    
  5336 1806-55-348     55    348.0       2639.    
  5337 1806-60-364     60    364.0       2635.    
  5338 1806-66-1       66    1.000       2629.    
  5339 1806-71-39      71    39.00       2638.    
  5340 1806-71-365     71    365.0       2635.    
  5341 1788-55-348     55    348.0       2637.    
  5342 1788-60-364     60    364.0       2632.    
  5343 1788-66-21      66    21.00       2631.    
  5344 1788-71-39      71    39.00       2631.    
  5345 1788-71-365     71    365.0       2633.    
  5346 1782-42-355     42    355.0       2633.    
  5347 1782-48-348     48    348.0       2631.    
  5348 1782-55-348     55    348.0       2635.    
  5349 1782-60-364     60    364.0       2631.    
  5350 1782-66-28      66    28.00       2628.    
  5351 1782-71-39      71    39.00       2628.    
  5352 1782-71-365     71    365.0       2631.    
  5353 1807-66-28      66    28.00       2633.    
  5354 1807-71-39      71    39.00       2634.    
  5355 1807-71-365     71    365.0       2634.    
  5356 1896-55-348     55    348.0       2594.    
  5357 1881-71-39      71    39.00       2601.    
  5358 1881-71-365     71    365.0       2589.    
  5359 1841-1-357       1    357.0       2580.    
 Observation within a steady-state time step has been moved to the end of the time step.
  5360 1773-34-91      34    91.00       2602.    
  5361 1821-48-302     48    302.0       2600.    
  5362 1798-16-362     16    362.0       2587.    
  5363 1797-48-348     48    348.0       2599.    
  5364 1797-55-348     55    348.0       2605.    
  5365 1797-60-354     60    354.0       2596.    
  5366 1797-66-28      66    28.00       2599.    
  5367 1797-71-39      71    39.00       2603.    
  5368 1797-71-365     71    365.0       2602.    
  5369 1789-42-356     42    356.0       2598.    
  5370 1789-55-348     55    348.0       2598.    
  5371 1789-60-364     60    364.0       2591.    
  5372 1789-66-28      66    28.00       2592.    
  5373 1789-71-39      71    39.00       2594.    
  5374 1789-71-365     71    365.0       2596.    
  5375 1780-66-28      66    28.00       2599.    
  5376 1780-71-39      71    39.00       2602.    
  5377 1780-71-365     71    365.0       2604.    
  5378 1799-42-356     42    356.0       2601.    
  5379 1799-48-335     48    335.0       2589.    
  5380 1736-34-152     34    152.0       2616.    
  5381 1613-42-355     42    355.0       2568.    
  5382 1613-48-348     48    348.0       2573.    
  5383 1613-55-348     55    348.0       2537.    
  5384 1613-61-41      61    41.00       2504.    
  5385 1613-66-12      66    12.00       2480.    
  5386 1613-71-22      71    22.00       2473.    
  5387 1613-71-365     71    365.0       2471.    
  5388 1606-55-348     55    348.0       2541.    
  5389 1606-61-41      61    41.00       2508.    
  5390 1606-66-12      66    12.00       2483.    
  5391 1606-71-22      71    22.00       2477.    
  5392 1606-71-365     71    365.0       2475.    
  5393 1620-2-90        2    90.00       2690.    
  5394 1620-12-324     12    324.0       2672.    
  5395 1620-16-362     16    362.0       2671.    
  5396 1705-48-335     48    335.0       2651.    
  5397 1705-56-16      56    16.00       2668.    
  5398 1705-61-60      61    60.00       2643.    
  5399 1705-66-25      66    25.00       2663.    
  5400 1530-48-335     48    335.0       2610.    
  5401 1530-56-16      56    16.00       2698.    
  5402 1530-61-60      61    60.00       2732.    
  5403 1434-37-27      37    27.00       2699.    
  5404 1434-42-356     42    356.0       2704.    
  5405 1434-56-17      56    17.00       2711.    
  5406 1434-60-321     60    321.0       2712.    
  5407 1434-65-298     65    298.0       2716.    
  5408 1434-71-365     71    365.0       2715.    
  5409 1384-48-335     48    335.0       2782.    
  5410 1344-48-348     48    348.0       2732.    
  5411 1344-55-348     55    348.0       2741.    
  5412 1344-61-41      61    41.00       2745.    
  5413 1344-66-5       66    5.000       2740.    
  5414 1344-71-356     71    356.0       2734.    
  5415 1354-2-93        2    93.00       2721.    
  5416 1354-7-52        7    52.00       2719.    
  5417 1354-12-102     12    102.0       2718.    
  5418 1354-17-71      17    71.00       2715.    
  5419 1354-22-32      22    32.00       2708.    
  5420 1354-32-90      32    90.00       2708.    
  5421 1354-38-60      38    60.00       2700.    
  5422 1358-32-90      32    90.00       2708.    
  5423 1358-48-336     48    336.0       2704.    
  5424 846-17-5        17    5.000       2368.    
  5425 846-22-33       22    33.00       2362.    
  5426 846-48-348      48    348.0       2367.    
  5427 846-61-25       61    25.00       2372.    
  5428 846-65-362      65    362.0       2372.    
  5429 846-71-365      71    365.0       2376.    
  5430 829-48-348      48    348.0       2368.    
  5431 829-55-353      55    353.0       2372.    
  5432 829-61-35       61    35.00       2375.    
  5433 829-65-362      65    362.0       2373.    
  5434 829-71-365      71    365.0       2379.    
  5435 839-12-121      12    121.0       2371.    
     MULTIPLE LAYERS AND PROPORTIONS :    2, 0.10       3, 0.90
  5436 839-71-365      71    365.0       2370.    
     MULTIPLE LAYERS AND PROPORTIONS :    2, 0.10       3, 0.90
  5437 817-1-220        1    220.0       2378.    
 Observation within a steady-state time step has been moved to the end of the time step.
  5438 817-6-331        6    331.0       2379.    
  5439 817-12-8        12    8.000       2379.    
  5440 813-32-87       32    87.00       2359.    
  5441 813-37-33       37    33.00       2360.    
  5442 813-42-350      42    350.0       2369.    
  5443 813-48-348      48    348.0       2377.    
  5444 813-56-17       56    17.00       2381.    
  5445 813-60-323      60    323.0       2381.    
  5446 813-65-301      65    301.0       2379.    
  5447 813-71-365      71    365.0       2386.    
  5448 818-17-5        17    5.000       2377.    
  5449 820-1-108        1    108.0       2362.    
 Observation within a steady-state time step has been moved to the end of the time step.
  5450 812-17-5        17    5.000       2369.    
     MULTIPLE LAYERS AND PROPORTIONS :    2, 0.08       3, 0.92
  5451 812-36-157      36    157.0       2336.    
     MULTIPLE LAYERS AND PROPORTIONS :    2, 0.08       3, 0.92
  5452 812-56-17       56    17.00       2373.    
     MULTIPLE LAYERS AND PROPORTIONS :    2, 0.08       3, 0.92
  5453 812-61-61       61    61.00       2364.    
     MULTIPLE LAYERS AND PROPORTIONS :    2, 0.08       3, 0.92
  5454 812-66-19       66    19.00       2373.    
     MULTIPLE LAYERS AND PROPORTIONS :    2, 0.08       3, 0.92
  5455 811-56-19       56    19.00       2372.    
  5456 811-66-20       66    20.00       2372.    
  5457 796-65-362      65    362.0       2378.    
  5458 796-71-365      71    365.0       2379.    
  5459 833-8-18         8    18.00       2360.    
     MULTIPLE LAYERS AND PROPORTIONS :    2, 0.17       3, 0.83
  5460 822-1-63         1    63.00       2365.    
 Observation within a steady-state time step has been moved to the end of the time step.
  5461 830-1-365        1    365.0       2364.    
 Observation within a steady-state time step has been moved to the end of the time step.
  5462 821-56-17       56    17.00       2359.    
  5463 821-61-61       61    61.00       2360.    
  5464 845-1-73         1    73.00       2315.    
 Observation within a steady-state time step has been moved to the end of the time step.
  5465 845-7-2          7    2.000       2316.    
  5466 845-11-272      11    272.0       2315.    
  5467 845-16-318      16    318.0       2306.    
  5468 845-22-33       22    33.00       2308.    
  5469 845-31-351      31    351.0       2303.    
  5470 845-36-62       36    62.00       2300.    
  5471 845-42-350      42    350.0       2299.    
  5472 845-48-348      48    348.0       2301.    
  5473 845-56-19       56    19.00       2310.    
  5474 845-60-323      60    323.0       2310.    
  5475 845-65-301      65    301.0       2309.    
  5476 845-71-13       71    13.00       2316.    
  5477 1183-16-315     16    315.0       2059.    
     MULTIPLE LAYERS AND PROPORTIONS :    2, 0.37       3, 0.63
  5478 1183-26-354     26    354.0       2042.    
     MULTIPLE LAYERS AND PROPORTIONS :    2, 0.37       3, 0.63
  5479 1183-31-362     31    362.0       2037.    
     MULTIPLE LAYERS AND PROPORTIONS :    2, 0.37       3, 0.63
  5480 1183-36-356     36    356.0       2032.    
     MULTIPLE LAYERS AND PROPORTIONS :    2, 0.37       3, 0.63
  5481 1183-42-350     42    350.0       2023.    
     MULTIPLE LAYERS AND PROPORTIONS :    2, 0.37       3, 0.63
  5482 1183-48-348     48    348.0       2015.    
     MULTIPLE LAYERS AND PROPORTIONS :    2, 0.37       3, 0.63
  5483 1183-66-25      66    25.00       1980.    
     MULTIPLE LAYERS AND PROPORTIONS :    2, 0.37       3, 0.63
  5484 1183-71-365     71    365.0       2002.    
     MULTIPLE LAYERS AND PROPORTIONS :    2, 0.37       3, 0.63
  5485 1190-56-23      56    23.00       2001.    
     MULTIPLE LAYERS AND PROPORTIONS :    2, 0.40       3, 0.60
  5486 1190-61-54      61    54.00       1992.    
     MULTIPLE LAYERS AND PROPORTIONS :    2, 0.40       3, 0.60
  5487 1190-66-25      66    25.00       1979.    
     MULTIPLE LAYERS AND PROPORTIONS :    2, 0.40       3, 0.60
  5488 1186-3-344       1    108.0       2064.    
 Observation within a steady-state time step has been moved to the end of the time step.
  5489 1186-5-69        5    69.00       2064.    
  5490 1186-17-6       17    6.000       2057.    
  5491 1185-10-213     10    213.0       2065.    
  5492 1178-38-335     38    335.0       2020.    
  5493 1178-42-349     42    349.0       2004.    
  5494 1178-48-349     48    349.0       1996.    
  5495 1178-55-353     55    353.0       1980.    
  5496 1178-61-21      61    21.00       1956.    
  5497 1178-66-34      66    34.00       1939.    
  5498 1178-71-365     71    365.0       1990.    
  5499 1182-66-25      66    25.00       1954.    
  5500 1132-12-4       12    4.000       2069.    
  5501 1134-1-73        1    73.00       2069.    
 Observation within a steady-state time step has been moved to the end of the time step.
  5502 1148-17-12      17    12.00       2046.    
     MULTIPLE LAYERS AND PROPORTIONS :    2, 0.28       3, 0.72
  5503 1148-21-356     21    356.0       2038.    
     MULTIPLE LAYERS AND PROPORTIONS :    2, 0.28       3, 0.72
  5504 1148-27-27      27    27.00       2033.    
     MULTIPLE LAYERS AND PROPORTIONS :    2, 0.28       3, 0.72
  5505 1148-31-348     31    348.0       2027.    
     MULTIPLE LAYERS AND PROPORTIONS :    2, 0.28       3, 0.72
  5506 1148-37-23      37    23.00       2022.    
     MULTIPLE LAYERS AND PROPORTIONS :    2, 0.28       3, 0.72
  5507 1148-42-349     42    349.0       2011.    
     MULTIPLE LAYERS AND PROPORTIONS :    2, 0.28       3, 0.72
  5508 1148-48-348     48    348.0       2000.    
     MULTIPLE LAYERS AND PROPORTIONS :    2, 0.28       3, 0.72
  5509 1148-55-353     55    353.0       1979.    
     MULTIPLE LAYERS AND PROPORTIONS :    2, 0.28       3, 0.72
  5510 1148-61-34      61    34.00       1951.    
     MULTIPLE LAYERS AND PROPORTIONS :    2, 0.28       3, 0.72
  5511 1148-66-6       66    6.000       1935.    
     MULTIPLE LAYERS AND PROPORTIONS :    2, 0.28       3, 0.72
  5512 1148-71-365     71    365.0       1952.    
     MULTIPLE LAYERS AND PROPORTIONS :    2, 0.28       3, 0.72
  5513 1177-35-321     35    321.0       2025.    
  5514 1177-42-349     42    349.0       2007.    
  5515 1177-48-348     48    348.0       1997.    
  5516 1177-55-353     55    353.0       1979.    
  5517 1177-61-21      61    21.00       1949.    
  5518 1177-66-34      66    34.00       1937.    
  5519 1177-71-50      71    50.00       1949.    
  5520 1105-12-4       12    4.000       2060.    
  5521 1105-16-333     16    333.0       2053.    
  5522 1105-21-356     21    356.0       2044.    
  5523 1106-42-349     42    349.0       2018.    
  5524 1106-55-353     55    353.0       1984.    
  5525 1106-61-13      61    13.00       1958.    
  5526 1106-66-6       66    6.000       1939.    
  5527 1106-71-365     71    365.0       1953.    
  5528 1102-66-6       66    6.000       1941.    
  5529 1102-71-365     71    365.0       1950.    
  5530 1120-3-152       3    152.0       2054.    
  5531 1089-42-349     42    349.0       2026.    
     MULTIPLE LAYERS AND PROPORTIONS :    2, 0.01       3, 0.99
  5532 1089-48-349     48    349.0       2010.    
     MULTIPLE LAYERS AND PROPORTIONS :    2, 0.01       3, 0.99
  5533 1089-55-353     55    353.0       1994.    
     MULTIPLE LAYERS AND PROPORTIONS :    2, 0.01       3, 0.99
  5534 1089-61-34      61    34.00       1975.    
     MULTIPLE LAYERS AND PROPORTIONS :    2, 0.01       3, 0.99
  5535 1089-66-6       66    6.000       1960.    
     MULTIPLE LAYERS AND PROPORTIONS :    2, 0.01       3, 0.99
  5536 1089-71-365     71    365.0       1971.    
     MULTIPLE LAYERS AND PROPORTIONS :    2, 0.01       3, 0.99
  5537 1093-66-6       66    6.000       1959.    
  5538 1093-71-365     71    365.0       1971.    
  5539 1087-48-349     48    349.0       1998.    
     MULTIPLE LAYERS AND PROPORTIONS :    2, 0.02       3, 0.98
  5540 1087-61-24      61    24.00       1992.    
     MULTIPLE LAYERS AND PROPORTIONS :    2, 0.02       3, 0.98
  5541 1087-71-70      71    70.00       1979.    
     MULTIPLE LAYERS AND PROPORTIONS :    2, 0.02       3, 0.98
  5542 1097-15-1       15    1.000       2056.    
  5543 996-26-315      26    315.0       2108.    
  5544 996-48-349      48    349.0       2065.    
  5545 996-55-353      55    353.0       2055.    
  5546 996-61-11       61    11.00       2037.    
  5547 996-66-6        66    6.000       2034.    
  5548 996-71-365      71    365.0       2036.    
  5549 995-39-335      39    335.0       2084.    
     MULTIPLE LAYERS AND PROPORTIONS :    2, 0.06       3, 0.94
  5550 995-42-349      42    349.0       2064.    
     MULTIPLE LAYERS AND PROPORTIONS :    2, 0.06       3, 0.94
  5551 995-55-353      55    353.0       2044.    
     MULTIPLE LAYERS AND PROPORTIONS :    2, 0.06       3, 0.94
  5552 995-61-34       61    34.00       2030.    
     MULTIPLE LAYERS AND PROPORTIONS :    2, 0.06       3, 0.94
  5553 995-66-6        66    6.000       2019.    
     MULTIPLE LAYERS AND PROPORTIONS :    2, 0.06       3, 0.94
  5554 995-71-365      71    365.0       2033.    
  5555 1090-12-5       12    5.000       2086.    
  5556 1090-17-5       17    5.000       2083.    
  5557 969-56-19       56    19.00       2115.    
  5558 969-71-365      71    365.0       2107.    
  5559 983-42-349      42    349.0       2090.    
  5560 983-55-353      55    353.0       2067.    
  5561 983-61-34       61    34.00       2057.    
  5562 983-66-6        66    6.000       2052.    
  5563 983-71-365      71    365.0       2058.    
  5564 982-39-238      39    238.0       2104.    
  5565 921-42-305      42    305.0       2120.    
  5566 921-48-349      48    349.0       2116.    
  5567 921-61-34       61    34.00       2099.    
  5568 921-65-356      65    356.0       2092.    
  5569 921-71-365      71    365.0       2090.    
  5570 924-43-60       43    60.00       2107.    
  5571 924-48-348      48    348.0       2109.    
  5572 924-55-353      55    353.0       2097.    
  5573 924-61-34       61    34.00       2089.    
  5574 924-66-6        66    6.000       2081.    
  5575 924-71-365      71    365.0       2078.    
  5576 909-56-16       56    16.00       2118.    
  5577 911-34-337      34    337.0       2159.    
  5578 900-56-19       56    19.00       2180.    
     MULTIPLE LAYERS AND PROPORTIONS :    2, 0.48       3, 0.52
  5579 900-61-61       61    61.00       2192.    
     MULTIPLE LAYERS AND PROPORTIONS :    2, 0.48       3, 0.52
  5580 848-56-18       56    18.00       2195.    
     MULTIPLE LAYERS AND PROPORTIONS :    2, 0.56       3, 0.44
  5581 848-66-28       66    28.00       2195.    
     MULTIPLE LAYERS AND PROPORTIONS :    2, 0.56       3, 0.44
  5582 826-56-19       56    19.00       2208.    
  5583 800-61-61       61    61.00       2207.    
  5584 800-66-28       66    28.00       2194.    
  5585 803-33-59       33    59.00       2215.    
  5586 852-2-305        2    305.0       2140.    
  5587 1249-56-27      56    27.00       2347.    
  5588 1249-66-13      66    13.00       2266.    
  5589 1249-71-365     71    365.0       2273.    
  5590 1235-22-32      22    32.00       2376.    
     MULTIPLE LAYERS AND PROPORTIONS :    2, 0.35       3, 0.65
  5591 1235-42-362     42    362.0       2298.    
     MULTIPLE LAYERS AND PROPORTIONS :    2, 0.35       3, 0.65
  5592 1235-48-357     48    357.0       2338.    
     MULTIPLE LAYERS AND PROPORTIONS :    2, 0.35       3, 0.65
  5593 1235-56-32      56    32.00       2326.    
     MULTIPLE LAYERS AND PROPORTIONS :    2, 0.35       3, 0.65
  5594 1238-48-320     48    320.0       2316.    
  5595 1238-56-10      56    10.00       2288.    
  5596 1238-66-10      66    10.00       2251.    
  5597 1238-71-41      71    41.00       2262.    
  5598 1238-71-365     71    365.0       2267.    
  5599 1225-1-365       1    365.0       2430.    
 Observation within a steady-state time step has been moved to the end of the time step.
  5600 1200-56-30      56    30.00       2268.    
  5601 1200-66-10      66    10.00       2231.    
  5602 1200-71-40      71    40.00       2241.    
  5603 1198-71-48      71    48.00       2398.    
  5604 1262-48-320     48    320.0       2313.    
  5605 1262-56-10      56    10.00       2285.    
  5606 1262-60-362     60    362.0       2250.    
  5607 1262-66-10      66    10.00       2246.    
  5608 1262-71-41      71    41.00       2257.    
  5609 1263-48-320     48    320.0       2313.    
  5610 1263-56-10      56    10.00       2284.    
  5611 1263-60-362     60    362.0       2250.    
  5612 1263-66-10      66    10.00       2246.    
  5613 1263-71-60      71    60.00       2257.    
  5614 1263-71-365     71    365.0       2262.    
  5615 1239-17-44      17    44.00       2388.    
     MULTIPLE LAYERS AND PROPORTIONS :    1, 0.16       2, 0.58       3, 0.26
  5616 1239-22-32      22    32.00       2374.    
     MULTIPLE LAYERS AND PROPORTIONS :    1, 0.16       2, 0.58       3, 0.26
  5617 1239-43-5       43    5.000       2298.    
     MULTIPLE LAYERS AND PROPORTIONS :    2, 0.74       3, 0.26
  5618 1239-48-364     48    364.0       2319.    
     MULTIPLE LAYERS AND PROPORTIONS :    2, 0.74       3, 0.26
  5619 1239-56-41      56    41.00       2290.    
     MULTIPLE LAYERS AND PROPORTIONS :    2, 0.74       3, 0.26
  5620 1239-60-362     60    362.0       2257.    
     MULTIPLE LAYERS AND PROPORTIONS :    2, 0.74       3, 0.26
  5621 1239-66-10      66    10.00       2254.    
     MULTIPLE LAYERS AND PROPORTIONS :    2, 0.74       3, 0.26
  5622 1239-71-365     71    365.0       2270.    
     MULTIPLE LAYERS AND PROPORTIONS :    1, 0.16       2, 0.58       3, 0.26
  5623 1232-48-321     48    321.0       2316.    
  5624 1232-56-27      56    27.00       2288.    
  5625 1232-60-361     60    361.0       2254.    
  5626 1232-66-10      66    10.00       2251.    
  5627 1232-71-41      71    41.00       2262.    
  5628 1241-56-27      56    27.00       2287.    
  5629 1241-66-10      66    10.00       2250.    
  5630 1241-71-40      71    40.00       2260.    
  5631 1270-56-30      56    30.00       2282.    
  5632 1270-71-42      71    42.00       2255.    
  5633 1273-43-1       43    1.000       2285.    
  5634 1273-48-364     48    364.0       2306.    
  5635 1273-56-32      56    32.00       2276.    
  5636 1273-60-362     60    362.0       2242.    
  5637 1273-65-348     65    348.0       2239.    
  5638 1273-71-365     71    365.0       2255.    
  5639 1256-1-365       1    365.0       2388.    
 Observation within a steady-state time step has been moved to the end of the time step.
  5640 1234-43-5       43    5.000       2295.    
     MULTIPLE LAYERS AND PROPORTIONS :    2, 0.48       3, 0.52
  5641 1234-48-364     48    364.0       2316.    
     MULTIPLE LAYERS AND PROPORTIONS :    2, 0.48       3, 0.52
  5642 1234-56-32      56    32.00       2288.    
     MULTIPLE LAYERS AND PROPORTIONS :    2, 0.48       3, 0.52
  5643 1234-60-362     60    362.0       2254.    
     MULTIPLE LAYERS AND PROPORTIONS :    2, 0.48       3, 0.52
  5644 1233-56-32      56    32.00       2288.    
  5645 1233-65-337     65    337.0       2255.    
  5646 1233-71-365     71    365.0       2272.    
  5647 1227-17-44      17    44.00       2392.    
     MULTIPLE LAYERS AND PROPORTIONS :    2, 0.25       3, 0.75
  5648 1227-22-58      22    58.00       2377.    
     MULTIPLE LAYERS AND PROPORTIONS :    2, 0.25       3, 0.75
  5649 1227-31-335     31    335.0       2354.    
     MULTIPLE LAYERS AND PROPORTIONS :    2, 0.25       3, 0.75
  5650 1227-43-5       43    5.000       2301.    
     MULTIPLE LAYERS AND PROPORTIONS :    2, 0.25       3, 0.75
  5651 1227-48-364     48    364.0       2322.    
     MULTIPLE LAYERS AND PROPORTIONS :    2, 0.25       3, 0.75
  5652 1227-56-32      56    32.00       2295.    
     MULTIPLE LAYERS AND PROPORTIONS :    2, 0.25       3, 0.75
  5653 1227-61-60      61    60.00       2261.    
     MULTIPLE LAYERS AND PROPORTIONS :    2, 0.25       3, 0.75
  5654 1227-71-365     71    365.0       2273.    
     MULTIPLE LAYERS AND PROPORTIONS :    2, 0.25       3, 0.75
  5655 1208-1-364       1    364.0       2408.    
 Observation within a steady-state time step has been moved to the end of the time step.
  5656 1208-6-360       6    360.0       2405.    
  5657 1208-11-360     11    360.0       2387.    
  5658 1208-16-357     16    357.0       2389.    
  5659 1208-21-361     21    361.0       2372.    
  5660 1208-26-354     26    354.0       2402.    
  5661 1208-31-362     31    362.0       2395.    
  5662 1219-22-33      22    33.00       2371.    
     MULTIPLE LAYERS AND PROPORTIONS :    1, 0.28       2, 0.09       3, 0.63
  5663 1219-33-165     33    165.0       2333.    
     MULTIPLE LAYERS AND PROPORTIONS :    2, 0.38       3, 0.62
  5664 1219-42-362     42    362.0       2295.    
     MULTIPLE LAYERS AND PROPORTIONS :    2, 0.38       3, 0.62
  5665 1219-48-357     48    357.0       2316.    
     MULTIPLE LAYERS AND PROPORTIONS :    2, 0.38       3, 0.62
  5666 1219-56-32      56    32.00       2290.    
     MULTIPLE LAYERS AND PROPORTIONS :    2, 0.38       3, 0.62
  5667 1219-60-362     60    362.0       2256.    
     MULTIPLE LAYERS AND PROPORTIONS :    2, 0.38       3, 0.62
  5668 1219-66-10      66    10.00       2253.    
     MULTIPLE LAYERS AND PROPORTIONS :    2, 0.37       3, 0.63
  5669 1219-71-365     71    365.0       2269.    
     MULTIPLE LAYERS AND PROPORTIONS :    1, 0.28       2, 0.10       3, 0.62
  5670 1217-56-27      56    27.00       2292.    
  5671 1217-71-365     71    365.0       2271.    
  5672 1205-33-160     33    160.0       2338.    
     MULTIPLE LAYERS AND PROPORTIONS :    1, 0.34       2, 0.11       3, 0.55
  5673 1205-42-362     42    362.0       2300.    
     MULTIPLE LAYERS AND PROPORTIONS :    2, 0.45       3, 0.55
  5674 1205-48-357     48    357.0       2322.    
     MULTIPLE LAYERS AND PROPORTIONS :    2, 0.45       3, 0.55
  5675 1205-56-34      56    34.00       2298.    
     MULTIPLE LAYERS AND PROPORTIONS :    2, 0.45       3, 0.55
  5676 1205-66-10      66    10.00       2296.    
     MULTIPLE LAYERS AND PROPORTIONS :    2, 0.45       3, 0.55
  5677 1231-7-66        7    66.00       2392.    
     MULTIPLE LAYERS AND PROPORTIONS :    1, 0.33       2, 0.52       3, 0.15
  5678 1231-12-57      12    57.00       2377.    
     MULTIPLE LAYERS AND PROPORTIONS :    1, 0.33       2, 0.52       3, 0.15
  5679 1231-17-4       17    4.000       2375.    
     MULTIPLE LAYERS AND PROPORTIONS :    1, 0.33       2, 0.52       3, 0.15
  5680 1231-22-32      22    32.00       2364.    
     MULTIPLE LAYERS AND PROPORTIONS :    1, 0.33       2, 0.52       3, 0.15
  5681 1231-27-10      27    10.00       2353.    
     MULTIPLE LAYERS AND PROPORTIONS :    1, 0.33       2, 0.52       3, 0.15
  5682 1231-31-335     31    335.0       2341.    
     MULTIPLE LAYERS AND PROPORTIONS :    1, 0.33       2, 0.52       3, 0.15
  5683 1231-37-335     37    335.0       2333.    
     MULTIPLE LAYERS AND PROPORTIONS :    2, 0.85       3, 0.15
  5684 1179-6-115       6    115.0       2415.    
  5685 1168-17-47      17    47.00       2403.    
  5686 1168-22-32      22    32.00       2392.    
  5687 1168-36-335     36    335.0       2315.    
  5688 1114-1-365       1    365.0       2440.    
 Observation within a steady-state time step has been moved to the end of the time step.
  5689 1122-17-47      17    47.00       2418.    
  5690 1122-22-32      22    32.00       2391.    
  5691 1122-42-356     42    356.0       2298.    
  5692 1122-48-335     48    335.0       2336.    
  5693 1140-7-66        7    66.00       2423.    
     MULTIPLE LAYERS AND PROPORTIONS :    1, 0.46       2, 0.52       3, 0.02
  5694 1140-12-57      12    57.00       2419.    
     MULTIPLE LAYERS AND PROPORTIONS :    1, 0.46       2, 0.52       3, 0.02
  5695 1140-17-4       17    4.000       2406.    
     MULTIPLE LAYERS AND PROPORTIONS :    1, 0.46       2, 0.52       3, 0.02
  5696 1140-22-32      22    32.00       2395.    
     MULTIPLE LAYERS AND PROPORTIONS :    1, 0.46       2, 0.52       3, 0.02
  5697 1140-31-335     31    335.0       2361.    
     MULTIPLE LAYERS AND PROPORTIONS :    2, 0.98       3, 0.02
  5698 1140-36-345     36    345.0       2332.    
     MULTIPLE LAYERS AND PROPORTIONS :    2, 0.98       3, 0.02
  5699 1193-48-321     48    321.0       2325.    
     MULTIPLE LAYERS AND PROPORTIONS :    2, 0.62       3, 0.38
  5700 1193-56-30      56    30.00       2300.    
     MULTIPLE LAYERS AND PROPORTIONS :    2, 0.62       3, 0.38
  5701 1176-48-320     48    320.0       2326.    
  5702 1176-56-10      56    10.00       2302.    
  5703 1176-60-361     60    361.0       2271.    
  5704 1176-66-10      66    10.00       2265.    
  5705 1176-71-40      71    40.00       2276.    
  5706 1176-71-365     71    365.0       2282.    
  5707 1159-66-10      66    10.00       2352.    
  5708 1159-71-62      71    62.00       2331.    
  5709 1159-71-365     71    365.0       2326.    
  5710 1160-71-62      71    62.00       2408.    
     MULTIPLE LAYERS AND PROPORTIONS :    1, 0.79       2, 0.21
  5711 1160-71-365     71    365.0       2409.    
     MULTIPLE LAYERS AND PROPORTIONS :    1, 0.79       2, 0.21
  5712 1147-42-356     42    356.0       2384.    
  5713 1147-48-335     48    335.0       2391.    
  5714 1147-56-17      56    17.00       2388.    
  5715 1141-1-274       1    274.0       2417.    
 Observation within a steady-state time step has been moved to the end of the time step.
  5716 1141-7-176       7    176.0       2412.    
  5717 1141-11-311     11    311.0       2405.    
  5718 1141-17-44      17    44.00       2406.    
  5719 1141-22-30      22    30.00       2388.    
  5720 1141-26-349     26    349.0       2370.    
  5721 1141-31-362     31    362.0       2359.    
  5722 1141-36-356     36    356.0       2320.    
  5723 1141-42-362     42    362.0       2302.    
  5724 1141-48-364     48    364.0       2330.    
  5725 1141-56-32      56    32.00       2308.    
  5726 1141-60-362     60    362.0       2280.    
  5727 1141-66-1       66    1.000       2273.    
  5728 1141-71-365     71    365.0       2289.    
  5729 1121-17-44      17    44.00       2430.    
     MULTIPLE LAYERS AND PROPORTIONS :    1, 0.34       2, 0.21       3, 0.45
  5730 1121-22-33      22    33.00       2397.    
     MULTIPLE LAYERS AND PROPORTIONS :    1, 0.34       2, 0.21       3, 0.45
  5731 1121-31-335     31    335.0       2362.    
     MULTIPLE LAYERS AND PROPORTIONS :    1, 0.34       2, 0.21       3, 0.45
  5732 1121-35-345     35    345.0       2332.    
     MULTIPLE LAYERS AND PROPORTIONS :    2, 0.55       3, 0.45
  5733 1121-42-356     42    356.0       2319.    
     MULTIPLE LAYERS AND PROPORTIONS :    2, 0.55       3, 0.45
  5734 1121-48-355     48    355.0       2339.    
     MULTIPLE LAYERS AND PROPORTIONS :    2, 0.55       3, 0.45
  5735 1121-56-32      56    32.00       2335.    
     MULTIPLE LAYERS AND PROPORTIONS :    2, 0.55       3, 0.45
  5736 1121-60-362     60    362.0       2321.    
     MULTIPLE LAYERS AND PROPORTIONS :    2, 0.55       3, 0.45
  5737 1121-65-348     65    348.0       2330.    
     MULTIPLE LAYERS AND PROPORTIONS :    1, 0.34       2, 0.21       3, 0.45
  5738 1121-71-365     71    365.0       2333.    
     MULTIPLE LAYERS AND PROPORTIONS :    1, 0.34       2, 0.21       3, 0.45
  5739 1192-71-55      71    55.00       2429.    
  5740 1157-48-322     48    322.0       2327.    
  5741 1157-56-10      56    10.00       2305.    
  5742 1157-60-361     60    361.0       2275.    
  5743 1157-66-10      66    10.00       2269.    
  5744 1157-71-40      71    40.00       2280.    
  5745 1180-48-323     48    323.0       2405.    
  5746 1167-71-365     71    365.0       2406.    
     MULTIPLE LAYERS AND PROPORTIONS :    1, 0.91       2, 0.09
  5747 1170-71-365     71    365.0       2406.    
     MULTIPLE LAYERS AND PROPORTIONS :    1, 0.69       2, 0.31
  5748 1172-71-365     71    365.0       2406.    
  5749 1163-71-365     71    365.0       2407.    
     MULTIPLE LAYERS AND PROPORTIONS :    1, 0.88       2, 0.12
  5750 1155-71-365     71    365.0       2404.    
  5751 1144-71-365     71    365.0       2418.    
     MULTIPLE LAYERS AND PROPORTIONS :    2, 0.20       3, 0.80
  5752 1080-22-33      22    33.00       2448.    
  5753 1080-31-335     31    335.0       2422.    
  5754 1080-42-356     42    356.0       2428.    
  5755 1080-48-355     48    355.0       2431.    
  5756 1085-42-356     42    356.0       2323.    
     MULTIPLE LAYERS AND PROPORTIONS :    1, 0.12       2, 0.38       3, 0.50
  5757 1085-48-355     48    355.0       2409.    
     MULTIPLE LAYERS AND PROPORTIONS :    1, 0.12       2, 0.38       3, 0.50
  5758 1091-71-56      71    56.00       2424.    
  5759 1048-71-365     71    365.0       2439.    
     MULTIPLE LAYERS AND PROPORTIONS :    1, 0.20       2, 0.12       3, 0.68
  5760 1012-71-365     71    365.0       2441.    
     MULTIPLE LAYERS AND PROPORTIONS :    1, 0.50       2, 0.31       3, 0.19
  5761 1039-48-322     48    322.0       2338.    
  5762 1039-56-30      56    30.00       2315.    
  5763 1039-60-362     60    362.0       2288.    
  5764 1039-66-13      66    13.00       2281.    
  5765 1039-71-365     71    365.0       2299.    
  5766 1040-71-365     71    365.0       2448.    
  5767 1075-17-44      17    44.00       2442.    
     MULTIPLE LAYERS AND PROPORTIONS :    1, 0.35       2, 0.04       3, 0.61
  5768 1075-22-33      22    33.00       2435.    
     MULTIPLE LAYERS AND PROPORTIONS :    1, 0.35       2, 0.04       3, 0.61
  5769 1075-31-335     31    335.0       2413.    
     MULTIPLE LAYERS AND PROPORTIONS :    1, 0.35       2, 0.04       3, 0.61
  5770 1053-42-357     42    357.0       2358.    
  5771 1056-48-335     48    335.0       2338.    
  5772 1056-56-17      56    17.00       2317.    
  5773 1016-17-32      17    32.00       2422.    
  5774 1016-31-335     31    335.0       2366.    
  5775 1016-37-319     37    319.0       2356.    
  5776 1011-22-33      22    33.00       2391.    
     MULTIPLE LAYERS AND PROPORTIONS :    1, 0.14       2, 0.14       3, 0.72
  5777 1015-42-356     42    356.0       2311.    
  5778 1015-48-337     48    337.0       2332.    
  5779 1015-56-19      56    19.00       2335.    
  5780 1015-61-53      61    53.00       2295.    
  5781 1015-66-32      66    32.00       2286.    
  5782 1094-1-277       1    277.0       2430.    
 Observation within a steady-state time step has been moved to the end of the time step.
  5783 1094-6-340       6    340.0       2427.    
  5784 1094-10-27      10    27.00       2424.    
  5785 1077-7-176       7    176.0       2432.    
     MULTIPLE LAYERS AND PROPORTIONS :    1, 0.24       2, 0.76
  5786 1063-17-46      17    46.00       2415.    
     MULTIPLE LAYERS AND PROPORTIONS :    1, 0.12       2, 0.55       3, 0.33
  5787 1063-22-33      22    33.00       2394.    
     MULTIPLE LAYERS AND PROPORTIONS :    1, 0.12       2, 0.55       3, 0.33
  5788 1034-36-335     36    335.0       2322.    
     MULTIPLE LAYERS AND PROPORTIONS :    2, 0.39       3, 0.61
  5789 1034-42-362     42    362.0       2309.    
     MULTIPLE LAYERS AND PROPORTIONS :    2, 0.39       3, 0.61
  5790 1034-48-357     48    357.0       2346.    
     MULTIPLE LAYERS AND PROPORTIONS :    2, 0.39       3, 0.61
  5791 1034-56-34      56    34.00       2323.    
     MULTIPLE LAYERS AND PROPORTIONS :    2, 0.39       3, 0.61
  5792 1034-66-1       66    1.000       2293.    
     MULTIPLE LAYERS AND PROPORTIONS :    2, 0.39       3, 0.61
  5793 1034-71-54      71    54.00       2305.    
     MULTIPLE LAYERS AND PROPORTIONS :    2, 0.39       3, 0.61
  5794 1034-71-365     71    365.0       2310.    
     MULTIPLE LAYERS AND PROPORTIONS :    2, 0.39       3, 0.61
  5795 997-17-46       17    46.00       2437.    
  5796 997-22-33       22    33.00       2420.    
  5797 1008-1-121       1    121.0       2454.    
 Observation within a steady-state time step has been moved to the end of the time step.
  5798 1049-17-46      17    46.00       2418.    
     MULTIPLE LAYERS AND PROPORTIONS :    2, 0.38       3, 0.62
  5799 1049-31-335     31    335.0       2358.    
     MULTIPLE LAYERS AND PROPORTIONS :    2, 0.38       3, 0.62
  5800 1049-36-335     36    335.0       2342.    
     MULTIPLE LAYERS AND PROPORTIONS :    2, 0.38       3, 0.62
  5801 1049-42-356     42    356.0       2307.    
     MULTIPLE LAYERS AND PROPORTIONS :    2, 0.38       3, 0.62
  5802 1049-48-334     48    334.0       2341.    
     MULTIPLE LAYERS AND PROPORTIONS :    2, 0.38       3, 0.62
  5803 1049-56-18      56    18.00       2319.    
     MULTIPLE LAYERS AND PROPORTIONS :    2, 0.38       3, 0.62
  5804 1049-61-53      61    53.00       2292.    
     MULTIPLE LAYERS AND PROPORTIONS :    2, 0.38       3, 0.62
  5805 1007-11-194     11    194.0       2432.    
  5806 1007-17-4       17    4.000       2433.    
  5807 1007-22-32      22    32.00       2411.    
  5808 1007-27-10      27    10.00       2401.    
  5809 1007-31-335     31    335.0       2370.    
  5810 1007-37-319     37    319.0       2361.    
  5811 1006-1-364       1    364.0       2442.    
 Observation within a steady-state time step has been moved to the end of the time step.
  5812 1006-7-66        7    66.00       2438.    
  5813 1006-11-258     11    258.0       2368.    
  5814 1006-17-44      17    44.00       2426.    
  5815 1065-42-356     42    356.0       2413.    
  5816 1065-48-334     48    334.0       2415.    
  5817 1065-56-18      56    18.00       2414.    
  5818 1065-66-24      66    24.00       2413.    
  5819 991-22-34       22    34.00       2435.    
  5820 991-26-279      26    279.0       2422.    
  5821 991-31-335      31    335.0       2404.    
  5822 991-37-319      37    319.0       2396.    
  5823 991-42-356      42    356.0       2390.    
  5824 991-48-334      48    334.0       2394.    
  5825 991-66-27       66    27.00       2392.    
  5826 976-1-365        1    365.0       2456.    
 Observation within a steady-state time step has been moved to the end of the time step.
  5827 963-1-365        1    365.0       2458.    
 Observation within a steady-state time step has been moved to the end of the time step.
  5828 964-1-365        1    365.0       2458.    
 Observation within a steady-state time step has been moved to the end of the time step.
  5829 960-1-365        1    365.0       2471.    
 Observation within a steady-state time step has been moved to the end of the time step.
  5830 953-1-364        1    364.0       2473.    
 Observation within a steady-state time step has been moved to the end of the time step.
  5831 950-17-4        17    4.000       2472.    
  5832 936-1-365        1    365.0       2461.    
 Observation within a steady-state time step has been moved to the end of the time step.
  5833 932-1-365        1    365.0       2504.    
 Observation within a steady-state time step has been moved to the end of the time step.
  5834 944-42-356      42    356.0       2356.    
  5835 944-48-341      48    341.0       2376.    
  5836 926-1-365        1    365.0       2487.    
 Observation within a steady-state time step has been moved to the end of the time step.
  5837 929-1-364        1    364.0       2484.    
 Observation within a steady-state time step has been moved to the end of the time step.
  5838 929-6-340        6    340.0       2482.    
  5839 929-11-333      11    333.0       2478.    
  5840 929-16-301      16    301.0       2474.    
  5841 974-42-362      42    362.0       2301.    
  5842 974-48-336      48    336.0       2335.    
  5843 974-56-18       56    18.00       2322.    
  5844 957-1-365        1    365.0       2481.    
 Observation within a steady-state time step has been moved to the end of the time step.
  5845 942-1-365        1    365.0       2544.    
 Observation within a steady-state time step has been moved to the end of the time step.
  5846 937-1-364        1    364.0       2473.    
 Observation within a steady-state time step has been moved to the end of the time step.
  5847 943-22-32       22    32.00       2442.    
  5848 943-26-279      26    279.0       2421.    
  5849 943-31-335      31    335.0       2403.    
  5850 943-36-335      36    335.0       2365.    
  5851 943-42-351      42    351.0       2351.    
  5852 943-48-336      48    336.0       2355.    
  5853 862-22-33       22    33.00       2507.    
     MULTIPLE LAYERS AND PROPORTIONS :    1, 0.34       2, 0.34       3, 0.32
  5854 862-27-59       27    59.00       2490.    
     MULTIPLE LAYERS AND PROPORTIONS :    1, 0.34       2, 0.34       3, 0.32
  5855 862-31-335      31    335.0       2453.    
     MULTIPLE LAYERS AND PROPORTIONS :    1, 0.34       2, 0.34       3, 0.32
  5856 862-36-336      36    336.0       2434.    
     MULTIPLE LAYERS AND PROPORTIONS :    1, 0.34       2, 0.34       3, 0.32
  5857 862-42-351      42    351.0       2426.    
     MULTIPLE LAYERS AND PROPORTIONS :    1, 0.34       2, 0.34       3, 0.32
  5858 862-48-337      48    337.0       2442.    
     MULTIPLE LAYERS AND PROPORTIONS :    1, 0.34       2, 0.34       3, 0.32
  5859 901-1-364        1    364.0       2513.    
 Observation within a steady-state time step has been moved to the end of the time step.
  5860 907-37-342      37    342.0       2408.    
     MULTIPLE LAYERS AND PROPORTIONS :    2, 0.59       3, 0.41
  5861 903-1-365        1    365.0       2503.    
 Observation within a steady-state time step has been moved to the end of the time step.
  5862 895-42-356      42    356.0       2392.    
  5863 895-48-337      48    337.0       2386.    
  5864 898-1-32         1    32.00       2492.    
 Observation within a steady-state time step has been moved to the end of the time step.
  5865 898-17-4        17    4.000       2491.    
  5866 889-22-32       22    32.00       2489.    
     MULTIPLE LAYERS AND PROPORTIONS :    1, 0.20       2, 0.22       3, 0.58
  5867 889-26-279      26    279.0       2467.    
     MULTIPLE LAYERS AND PROPORTIONS :    1, 0.20       2, 0.22       3, 0.58
  5868 889-31-335      31    335.0       2455.    
     MULTIPLE LAYERS AND PROPORTIONS :    1, 0.20       2, 0.22       3, 0.58
  5869 889-36-336      36    336.0       2425.    
     MULTIPLE LAYERS AND PROPORTIONS :    1, 0.20       2, 0.22       3, 0.58
  5870 889-42-356      42    356.0       2380.    
     MULTIPLE LAYERS AND PROPORTIONS :    1, 0.20       2, 0.22       3, 0.58
  5871 889-48-337      48    337.0       2404.    
     MULTIPLE LAYERS AND PROPORTIONS :    1, 0.20       2, 0.22       3, 0.58
  5872 889-61-54       61    54.00       2384.    
     MULTIPLE LAYERS AND PROPORTIONS :    1, 0.20       2, 0.22       3, 0.58
  5873 883-42-356      42    356.0       2375.    
  5874 621-37-343      37    343.0       2434.    
     MULTIPLE LAYERS AND PROPORTIONS :    2, 0.16       3, 0.84
  5875 934-33-21       33    21.00       2430.    
  5876 863-1-365        1    365.0       2520.    
 Observation within a steady-state time step has been moved to the end of the time step.
  5877 914-48-336      48    336.0       2386.    
  5878 914-61-55       61    55.00       2363.    
  5879 902-17-47       17    47.00       2483.    
     MULTIPLE LAYERS AND PROPORTIONS :    1, 0.16       2, 0.17       3, 0.67
  5880 902-22-32       22    32.00       2476.    
     MULTIPLE LAYERS AND PROPORTIONS :    1, 0.16       2, 0.17       3, 0.67
  5881 902-26-278      26    278.0       2456.    
     MULTIPLE LAYERS AND PROPORTIONS :    1, 0.16       2, 0.17       3, 0.67
  5882 902-36-336      36    336.0       2408.    
     MULTIPLE LAYERS AND PROPORTIONS :    1, 0.17       2, 0.17       3, 0.66
  5883 902-42-356      42    356.0       2375.    
     MULTIPLE LAYERS AND PROPORTIONS :    2, 0.33       3, 0.67
  5884 902-48-337      48    337.0       2392.    
     MULTIPLE LAYERS AND PROPORTIONS :    2, 0.33       3, 0.67
  5885 902-61-54       61    54.00       2366.    
     MULTIPLE LAYERS AND PROPORTIONS :    2, 0.33       3, 0.67
  5886 916-1-365        1    365.0       2494.    
 Observation within a steady-state time step has been moved to the end of the time step.
  5887 916-7-298        7    298.0       2486.    
  5888 916-11-258      11    258.0       2482.    
  5889 916-17-32       17    32.00       2483.    
  5890 916-22-34       22    34.00       2477.    
  5891 916-26-278      26    278.0       2448.    
  5892 916-36-336      36    336.0       2401.    
  5893 916-42-362      42    362.0       2381.    
  5894 916-48-335      48    335.0       2388.    
  5895 916-61-55       61    55.00       2363.    
  5896 917-42-362      42    362.0       2386.    
  5897 917-48-335      48    335.0       2398.    
  5898 905-1-365        1    365.0       2494.    
 Observation within a steady-state time step has been moved to the end of the time step.
  5899 910-42-362      42    362.0       2406.    
     MULTIPLE LAYERS AND PROPORTIONS :    2, 0.05       3, 0.95
  5900 897-1-365        1    365.0       2511.    
 Observation within a steady-state time step has been moved to the end of the time step.
  5901 864-1-364        1    364.0       2511.    
 Observation within a steady-state time step has been moved to the end of the time step.
  5902 865-42-356      42    356.0       2388.    
     MULTIPLE LAYERS AND PROPORTIONS :    2, 0.53       3, 0.47
  5903 865-48-335      48    335.0       2411.    
     MULTIPLE LAYERS AND PROPORTIONS :    2, 0.53       3, 0.47
  5904 854-1-365        1    365.0       2516.    
 Observation within a steady-state time step has been moved to the end of the time step.
  5905 856-1-365        1    365.0       2515.    
 Observation within a steady-state time step has been moved to the end of the time step.
  5906 851-22-34       22    34.00       2501.    
     MULTIPLE LAYERS AND PROPORTIONS :    1, 0.27       2, 0.18       3, 0.55
  5907 851-26-278      26    278.0       2480.    
     MULTIPLE LAYERS AND PROPORTIONS :    1, 0.27       2, 0.18       3, 0.55
  5908 851-37-342      37    342.0       2445.    
     MULTIPLE LAYERS AND PROPORTIONS :    1, 0.27       2, 0.18       3, 0.55
  5909 851-48-337      48    337.0       2426.    
     MULTIPLE LAYERS AND PROPORTIONS :    2, 0.45       3, 0.55
  5910 851-61-54       61    54.00       2417.    
     MULTIPLE LAYERS AND PROPORTIONS :    2, 0.45       3, 0.55
  5911 843-1-365        1    365.0       2514.    
 Observation within a steady-state time step has been moved to the end of the time step.
  5912 841-1-365        1    365.0       2523.    
 Observation within a steady-state time step has been moved to the end of the time step.
  5913 836-17-4        17    4.000       2508.    
  5914 823-1-365        1    365.0       2528.    
 Observation within a steady-state time step has been moved to the end of the time step.
  5915 859-48-337      48    337.0       2415.    
  5916 842-37-342      37    342.0       2445.    
     MULTIPLE LAYERS AND PROPORTIONS :    2, 0.23       3, 0.77
  5917 842-42-356      42    356.0       2428.    
     MULTIPLE LAYERS AND PROPORTIONS :    2, 0.23       3, 0.77
  5918 842-48-337      48    337.0       2429.    
     MULTIPLE LAYERS AND PROPORTIONS :    2, 0.23       3, 0.77
  5919 842-61-54       61    54.00       2421.    
     MULTIPLE LAYERS AND PROPORTIONS :    2, 0.23       3, 0.77
  5920 831-42-351      42    351.0       2438.    
     MULTIPLE LAYERS AND PROPORTIONS :    1, 0.45       2, 0.55
  5921 831-48-337      48    337.0       2434.    
     MULTIPLE LAYERS AND PROPORTIONS :    1, 0.45       2, 0.55
  5922 828-42-351      42    351.0       2440.    
     MULTIPLE LAYERS AND PROPORTIONS :    1, 0.41       2, 0.33       3, 0.26
  5923 828-48-337      48    337.0       2437.    
     MULTIPLE LAYERS AND PROPORTIONS :    1, 0.41       2, 0.33       3, 0.26
  5924 819-1-365        1    365.0       2533.    
 Observation within a steady-state time step has been moved to the end of the time step.
  5925 1254-71-42      71    42.00       2339.    
  5926 1228-37-95      37    95.00       2395.    
  5927 1228-42-356     42    356.0       2381.    
  5928 1228-56-20      56    20.00       2381.    
  5929 1228-66-25      66    25.00       2353.    
  5930 1228-71-40      71    40.00       2348.    
  5931 1199-48-344     48    344.0       2388.    
  5932 1199-56-20      56    20.00       2389.    
  5933 1199-61-60      61    60.00       2375.    
  5934 1199-66-25      66    25.00       2369.    
  5935 1199-71-40      71    40.00       2361.    
  5936 1243-42-362     42    362.0       2314.    
  5937 1243-56-18      56    18.00       2313.    
  5938 1243-61-60      61    60.00       2294.    
  5939 1243-66-27      66    27.00       2283.    
  5940 1243-71-56      71    56.00       2280.    
  5941 1218-71-365     71    365.0       2422.    
     MULTIPLE LAYERS AND PROPORTIONS :    1, 0.32       2, 0.31       3, 0.37
  5942 1204-42-356     42    356.0       2298.    
     MULTIPLE LAYERS AND PROPORTIONS :    1, 0.15       2, 0.14       3, 0.71
  5943 1204-56-17      56    17.00       2295.    
     MULTIPLE LAYERS AND PROPORTIONS :    1, 0.15       2, 0.14       3, 0.71
  5944 1204-66-26      66    26.00       2264.    
     MULTIPLE LAYERS AND PROPORTIONS :    1, 0.15       2, 0.14       3, 0.71
  5945 1204-71-365     71    365.0       2283.    
     MULTIPLE LAYERS AND PROPORTIONS :    1, 0.15       2, 0.14       3, 0.71
  5946 1131-71-365     71    365.0       2433.    
  5947 1112-48-320     48    320.0       2331.    
  5948 1112-56-25      56    25.00       2321.    
  5949 1112-60-362     60    362.0       2302.    
  5950 1112-65-348     65    348.0       2295.    
  5951 1112-71-60      71    60.00       2306.    
  5952 1112-71-365     71    365.0       2310.    
  5953 1118-71-365     71    365.0       2460.    
  5954 1111-71-362     71    362.0       2461.    
     MULTIPLE LAYERS AND PROPORTIONS :    1, 0.54       2, 0.46
  5955 1169-71-362     71    362.0       2447.    
  5956 1100-48-348     48    348.0       2500.    
     MULTIPLE LAYERS AND PROPORTIONS :    1, 0.56       2, 0.44
  5957 1100-56-25      56    25.00       2499.    
     MULTIPLE LAYERS AND PROPORTIONS :    1, 0.56       2, 0.44
  5958 1100-61-56      61    56.00       2487.    
     MULTIPLE LAYERS AND PROPORTIONS :    1, 0.56       2, 0.44
  5959 1100-66-42      66    42.00       2474.    
     MULTIPLE LAYERS AND PROPORTIONS :    1, 0.56       2, 0.44
  5960 1100-71-365     71    365.0       2471.    
     MULTIPLE LAYERS AND PROPORTIONS :    1, 0.56       2, 0.44
  5961 1051-42-355     42    355.0       2511.    
     MULTIPLE LAYERS AND PROPORTIONS :    2, 0.84       3, 0.16
  5962 1051-48-365     48    365.0       2505.    
     MULTIPLE LAYERS AND PROPORTIONS :    2, 0.84       3, 0.16
  5963 1051-56-25      56    25.00       2501.    
     MULTIPLE LAYERS AND PROPORTIONS :    2, 0.84       3, 0.16
  5964 1051-61-42      61    42.00       2495.    
     MULTIPLE LAYERS AND PROPORTIONS :    2, 0.84       3, 0.16
  5965 1051-66-53      66    53.00       2487.    
     MULTIPLE LAYERS AND PROPORTIONS :    2, 0.84       3, 0.16
  5966 1051-71-365     71    365.0       2480.    
     MULTIPLE LAYERS AND PROPORTIONS :    2, 0.84       3, 0.16
  5967 1036-12-95      12    95.00       2539.    
  5968 1036-26-349     26    349.0       2538.    
  5969 1036-48-348     48    348.0       2513.    
  5970 1036-56-25      56    25.00       2511.    
  5971 1036-61-42      61    42.00       2505.    
  5972 1036-66-53      66    53.00       2496.    
  5973 1036-71-365     71    365.0       2487.    
  5974 1025-56-27      56    27.00       2508.    
  5975 1025-66-59      66    59.00       2497.    
  5976 1054-66-59      66    59.00       2488.    
  5977 1055-65-348     65    348.0       2483.    
  5978 1001-56-18      56    18.00       2499.    
  5979 1001-65-348     65    348.0       2495.    
  5980 1027-56-18      56    18.00       2499.    
  5981 1086-71-55      71    55.00       2451.    
  5982 1099-26-349     26    349.0       2377.    
     MULTIPLE LAYERS AND PROPORTIONS :    1, 0.26       2, 0.24       3, 0.50
  5983 1099-43-4       43    4.000       2312.    
     MULTIPLE LAYERS AND PROPORTIONS :    1, 0.26       2, 0.24       3, 0.50
  5984 1099-48-362     48    362.0       2335.    
     MULTIPLE LAYERS AND PROPORTIONS :    1, 0.26       2, 0.24       3, 0.50
  5985 1099-56-9       56    9.000       2312.    
     MULTIPLE LAYERS AND PROPORTIONS :    1, 0.26       2, 0.24       3, 0.50
  5986 1042-48-355     48    355.0       2340.    
  5987 1042-56-25      56    25.00       2320.    
  5988 1042-60-362     60    362.0       2294.    
  5989 1042-65-348     65    348.0       2287.    
  5990 1042-71-365     71    365.0       2304.    
  5991 952-56-33       56    33.00       2509.    
  5992 952-65-348      65    348.0       2501.    
  5993 949-56-27       56    27.00       2530.    
  5994 993-56-27       56    27.00       2504.    
  5995 956-56-29       56    29.00       2515.    
  5996 886-71-355      71    355.0       2505.    
     MULTIPLE LAYERS AND PROPORTIONS :    2, 0.15       3, 0.85
  5997 886-71-362      71    362.0       2497.    
     MULTIPLE LAYERS AND PROPORTIONS :    2, 0.15       3, 0.85
  5998 913-42-355      42    355.0       2532.    
  5999 913-48-334      48    334.0       2529.    
  6000 913-56-18       56    18.00       2525.    
  6001 913-61-53       61    53.00       2521.    
  6002 913-66-32       66    32.00       2513.    
  6003 874-71-61       71    61.00       2503.    
  6004 933-48-338      48    338.0       2507.    
  6005 933-56-18       56    18.00       2504.    
  6006 933-61-53       61    53.00       2501.    
  6007 933-66-32       66    32.00       2498.    
  6008 887-26-285      26    285.0       2524.    
     MULTIPLE LAYERS AND PROPORTIONS :    1, 0.61       2, 0.39
  6009 887-31-335      31    335.0       2519.    
     MULTIPLE LAYERS AND PROPORTIONS :    1, 0.61       2, 0.39
  6010 887-37-1        37    1.000       2505.    
     MULTIPLE LAYERS AND PROPORTIONS :    1, 0.61       2, 0.39
  6011 887-42-357      42    357.0       2478.    
     MULTIPLE LAYERS AND PROPORTIONS :    1, 0.61       2, 0.39
  6012 877-42-352      42    352.0       2515.    
  6013 877-48-338      48    338.0       2518.    
  6014 877-61-53       61    53.00       2510.    
  6015 877-66-32       66    32.00       2509.    
  6016 919-42-357      42    357.0       2478.    
     MULTIPLE LAYERS AND PROPORTIONS :    1, 0.81       2, 0.19
  6017 920-42-357      42    357.0       2473.    
     MULTIPLE LAYERS AND PROPORTIONS :    1, 0.88       2, 0.12
  6018 888-42-357      42    357.0       2467.    
  6019 892-17-48       17    48.00       2512.    
     MULTIPLE LAYERS AND PROPORTIONS :    1, 0.61       2, 0.39
  6020 892-22-37       22    37.00       2508.    
     MULTIPLE LAYERS AND PROPORTIONS :    1, 0.61       2, 0.39
  6021 892-26-285      26    285.0       2497.    
     MULTIPLE LAYERS AND PROPORTIONS :    1, 0.61       2, 0.39
  6022 892-31-335      31    335.0       2484.    
     MULTIPLE LAYERS AND PROPORTIONS :    1, 0.61       2, 0.39
  6023 892-36-337      36    337.0       2472.    
     MULTIPLE LAYERS AND PROPORTIONS :    1, 0.61       2, 0.39
  6024 878-36-335      36    335.0       2464.    
     MULTIPLE LAYERS AND PROPORTIONS :    1, 0.34       2, 0.66
  6025 878-42-359      42    359.0       2467.    
     MULTIPLE LAYERS AND PROPORTIONS :    1, 0.34       2, 0.66
  6026 878-71-365      71    365.0       2502.    
     MULTIPLE LAYERS AND PROPORTIONS :    1, 0.34       2, 0.66
  6027 853-22-37       22    37.00       2515.    
  6028 853-26-336      26    336.0       2491.    
  6029 853-48-362      48    362.0       2470.    
  6030 853-56-9        56    9.000       2454.    
  6031 853-61-47       61    47.00       2458.    
  6032 853-65-357      65    357.0       2495.    
  6033 853-71-362      71    362.0       2511.    
  6034 844-43-4        43    4.000       2467.    
     MULTIPLE LAYERS AND PROPORTIONS :    1, 0.49       2, 0.51
  6035 844-48-362      48    362.0       2462.    
     MULTIPLE LAYERS AND PROPORTIONS :    1, 0.49       2, 0.51
  6036 844-56-9        56    9.000       2474.    
     MULTIPLE LAYERS AND PROPORTIONS :    1, 0.49       2, 0.51
  6037 844-61-47       61    47.00       2465.    
     MULTIPLE LAYERS AND PROPORTIONS :    1, 0.49       2, 0.51
  6038 844-65-357      65    357.0       2498.    
     MULTIPLE LAYERS AND PROPORTIONS :    1, 0.49       2, 0.51
  6039 844-71-362      71    362.0       2515.    
     MULTIPLE LAYERS AND PROPORTIONS :    1, 0.49       2, 0.51
  6040 834-16-364      16    364.0       2533.    
     MULTIPLE LAYERS AND PROPORTIONS :    1, 0.92       2, 0.08
  6041 834-26-280      26    280.0       2484.    
     MULTIPLE LAYERS AND PROPORTIONS :    1, 0.92       2, 0.08
  6042 834-43-4        43    4.000       2465.    
     MULTIPLE LAYERS AND PROPORTIONS :    1, 0.92       2, 0.08
  6043 834-56-20       56    20.00       2471.    
     MULTIPLE LAYERS AND PROPORTIONS :    1, 0.92       2, 0.08
  6044 834-60-306      60    306.0       2458.    
     MULTIPLE LAYERS AND PROPORTIONS :    1, 0.92       2, 0.08
  6045 834-65-357      65    357.0       2497.    
     MULTIPLE LAYERS AND PROPORTIONS :    1, 0.92       2, 0.08
  6046 834-71-362      71    362.0       2514.    
     MULTIPLE LAYERS AND PROPORTIONS :    1, 0.92       2, 0.08
  6047 835-65-357      65    357.0       2500.    
  6048 835-71-362      71    362.0       2518.    
  6049 815-1-365        1    365.0       2541.    
 Observation within a steady-state time step has been moved to the end of the time step.
  6050 850-17-80       17    80.00       2544.    
  6051 850-22-37       22    37.00       2543.    
  6052 850-26-285      26    285.0       2538.    
  6053 850-31-335      31    335.0       2532.    
  6054 850-38-60       38    60.00       2520.    
  6055 850-42-352      42    352.0       2509.    
  6056 850-48-338      48    338.0       2512.    
  6057 850-60-320      60    320.0       2501.    
  6058 850-65-298      65    298.0       2503.    
  6059 850-71-365      71    365.0       2504.    
  6060 1259-66-59      66    59.00       2533.    
  6061 1236-66-59      66    59.00       2562.    
  6062 1260-66-59      66    59.00       2532.    
  6063 1244-66-59      66    59.00       2536.    
  6064 1252-35-23      35    23.00       2516.    
  6065 1267-71-365     71    365.0       2476.    
  6066 1253-37-90      37    90.00       2465.    
  6067 1253-42-355     42    355.0       2463.    
  6068 1253-48-349     48    349.0       2460.    
  6069 1253-56-11      56    11.00       2455.    
  6070 1253-61-56      61    56.00       2448.    
  6071 1253-66-59      66    59.00       2441.    
  6072 1253-71-365     71    365.0       2429.    
  6073 1245-37-90      37    90.00       2438.    
  6074 1245-42-355     42    355.0       2425.    
  6075 1245-48-349     48    349.0       2420.    
  6076 1245-55-357     55    357.0       2417.    
  6077 1245-61-12      61    12.00       2408.    
  6078 1245-66-49      66    49.00       2401.    
  6079 1245-71-365     71    365.0       2392.    
  6080 1250-17-86      17    86.00       2461.    
     MULTIPLE LAYERS AND PROPORTIONS :    1, 0.42       2, 0.58
  6081 1250-32-69      32    69.00       2422.    
     MULTIPLE LAYERS AND PROPORTIONS :    1, 0.42       2, 0.58
  6082 1250-37-95      37    95.00       2405.    
     MULTIPLE LAYERS AND PROPORTIONS :    1, 0.42       2, 0.58
  6083 1250-56-19      56    19.00       2380.    
  6084 1250-61-60      61    60.00       2364.    
  6085 1251-12-296     12    296.0       2472.    
     MULTIPLE LAYERS AND PROPORTIONS :    1, 0.24       2, 0.76
  6086 1251-17-86      17    86.00       2459.    
     MULTIPLE LAYERS AND PROPORTIONS :    1, 0.24       2, 0.76
  6087 1251-32-69      32    69.00       2418.    
     MULTIPLE LAYERS AND PROPORTIONS :    1, 0.24       2, 0.76
  6088 1251-37-95      37    95.00       2401.    
     MULTIPLE LAYERS AND PROPORTIONS :    1, 0.24       2, 0.76
  6089 1251-42-356     42    356.0       2381.    
     MULTIPLE LAYERS AND PROPORTIONS :    1, 0.24       2, 0.76
  6090 1251-48-334     48    334.0       2380.    
     MULTIPLE LAYERS AND PROPORTIONS :    1, 0.24       2, 0.76
  6091 1251-56-19      56    19.00       2376.    
     MULTIPLE LAYERS AND PROPORTIONS :    1, 0.24       2, 0.76
  6092 1251-60-321     60    321.0       2362.    
     MULTIPLE LAYERS AND PROPORTIONS :    1, 0.24       2, 0.76
  6093 1251-65-298     65    298.0       2356.    
     MULTIPLE LAYERS AND PROPORTIONS :    1, 0.24       2, 0.76
  6094 1251-71-365     71    365.0       2351.    
     MULTIPLE LAYERS AND PROPORTIONS :    1, 0.24       2, 0.76
  6095 1226-48-344     48    344.0       2395.    
  6096 1226-56-19      56    19.00       2392.    
  6097 1226-61-60      61    60.00       2374.    
  6098 1226-66-25      66    25.00       2371.    
  6099 1226-71-42      71    42.00       2363.    
  6100 1195-12-297     12    297.0       2515.    
     MULTIPLE LAYERS AND PROPORTIONS :    1, 0.47       2, 0.53
  6101 1195-17-60      17    60.00       2511.    
     MULTIPLE LAYERS AND PROPORTIONS :    1, 0.47       2, 0.53
  6102 1195-32-69      32    69.00       2493.    
     MULTIPLE LAYERS AND PROPORTIONS :    1, 0.47       2, 0.53
  6103 1195-37-95      37    95.00       2484.    
     MULTIPLE LAYERS AND PROPORTIONS :    1, 0.47       2, 0.53
  6104 1195-48-344     48    344.0       2469.    
  6105 1195-56-19      56    19.00       2423.    
  6106 1195-66-25      66    25.00       2438.    
  6107 1128-70-357     70    357.0       2457.    
  6108 1128-71-365     71    365.0       2458.    
  6109 1110-17-78      17    78.00       2537.    
  6110 1110-32-70      32    70.00       2525.    
  6111 1110-37-1       37    1.000       2507.    
  6112 1137-16-357     16    357.0       2534.    
  6113 1173-66-5       66    5.000       2554.    
  6114 1173-71-365     71    365.0       2541.    
  6115 1044-16-362     16    362.0       2571.    
  6116 1044-32-69      32    69.00       2561.    
  6117 1044-37-95      37    95.00       2559.    
  6118 1044-42-356     42    356.0       2552.    
  6119 1044-48-344     48    344.0       2546.    
  6120 1044-56-20      56    20.00       2550.    
  6121 1044-61-60      61    60.00       2536.    
  6122 1044-66-25      66    25.00       2521.    
  6123 1050-71-40      71    40.00       2513.    
  6124 1045-31-349     31    349.0       2555.    
  6125 1045-37-26      37    26.00       2550.    
  6126 1045-42-354     42    354.0       2545.    
  6127 1045-48-344     48    344.0       2543.    
  6128 1045-56-17      56    17.00       2550.    
  6129 1045-60-320     60    320.0       2531.    
  6130 1045-65-298     65    298.0       2514.    
  6131 1045-71-365     71    365.0       2501.    
  6132 1046-31-349     31    349.0       2549.    
  6133 1046-42-354     42    354.0       2535.    
  6134 1046-48-344     48    344.0       2536.    
  6135 1046-56-17      56    17.00       2529.    
  6136 1046-60-320     60    320.0       2529.    
  6137 1046-65-298     65    298.0       2512.    
  6138 1046-71-365     71    365.0       2500.    
  6139 1047-31-349     31    349.0       2492.    
  6140 1047-42-354     42    354.0       2469.    
  6141 1047-48-344     48    344.0       2465.    
  6142 1047-56-17      56    17.00       2456.    
  6143 1047-60-320     60    320.0       2443.    
  6144 1047-65-298     65    298.0       2463.    
  6145 1047-71-365     71    365.0       2462.    
  6146 1059-32-70      32    70.00       2541.    
  6147 1059-56-19      56    19.00       2525.    
  6148 1059-61-54      61    54.00       2518.    
  6149 1059-66-32      66    32.00       2504.    
  6150 1070-36-283     36    283.0       2528.    
     MULTIPLE LAYERS AND PROPORTIONS :    1, 0.42       2, 0.58
  6151 1017-17-78      17    78.00       2551.    
  6152 1017-31-349     31    349.0       2541.    
  6153 1017-37-26      37    26.00       2537.    
  6154 1017-42-355     42    355.0       2531.    
  6155 1004-71-365     71    365.0       2502.    
  6156 988-2-60         2    60.00       2547.    
  6157 979-42-355      42    355.0       2538.    
     MULTIPLE LAYERS AND PROPORTIONS :    1, 0.98       2, 0.02
  6158 979-48-334      48    334.0       2535.    
     MULTIPLE LAYERS AND PROPORTIONS :    1, 0.98       2, 0.02
  6159 979-56-18       56    18.00       2530.    
     MULTIPLE LAYERS AND PROPORTIONS :    1, 0.98       2, 0.02
  6160 979-61-53       61    53.00       2526.    
     MULTIPLE LAYERS AND PROPORTIONS :    1, 0.98       2, 0.02
  6161 961-7-85         7    85.00       2553.    
  6162 961-12-60       12    60.00       2552.    
  6163 961-16-362      16    362.0       2552.    
  6164 955-61-53       61    53.00       2538.    
  6165 955-66-31       66    31.00       2528.    
  6166 925-71-365      71    365.0       2505.    
  6167 940-71-365      71    365.0       2503.    
     MULTIPLE LAYERS AND PROPORTIONS :    1, 0.18       2, 0.82
  6168 945-71-365      71    365.0       2504.    
  6169 959-66-49       66    49.00       2516.    
  6170 959-71-365      71    365.0       2504.    
  6171 922-61-42       61    42.00       2543.    
  6172 922-66-54       66    54.00       2523.    
  6173 922-71-365      71    365.0       2511.    
  6174 978-66-59       66    59.00       2532.    
  6175 978-71-365      71    365.0       2523.    
  6176 977-56-17       56    17.00       2602.    
  6177 977-61-53       61    53.00       2594.    
  6178 977-66-32       66    32.00       2580.    
  6179 973-32-70       32    70.00       2598.    
  6180 973-38-60       38    60.00       2590.    
  6181 973-56-17       56    17.00       2607.    
  6182 973-61-53       61    53.00       2599.    
  6183 954-42-354      42    354.0       2599.    
  6184 954-48-335      48    335.0       2608.    
  6185 870-12-60       12    60.00       2625.    
  6186 870-17-78       17    78.00       2621.    
  6187 870-22-89       22    89.00       2618.    
  6188 870-32-70       32    70.00       2613.    
  6189 870-37-1        37    1.000       2612.    
  6190 870-42-354      42    354.0       2609.    
  6191 869-7-171        7    171.0       2627.    
  6192 869-42-354      42    354.0       2609.    
  6193 869-56-18       56    18.00       2612.    
  6194 869-60-320      60    320.0       2607.    
  6195 869-65-299      65    299.0       2594.    
  6196 869-71-365      71    365.0       2580.    
  6197 915-66-53       66    53.00       2565.    
  6198 915-71-365      71    365.0       2556.    
  6199 912-66-41       66    41.00       2539.    
  6200 912-71-365      71    365.0       2518.    
  6201 875-2-86         2    86.00       2589.    
  6202 879-61-53       61    53.00       2579.    
  6203 879-66-46       66    46.00       2541.    
  6204 879-71-365      71    365.0       2540.    
  6205 881-2-87         2    87.00       2569.    
  6206 891-48-334      48    334.0       2541.    
  6207 891-56-18       56    18.00       2538.    
  6208 891-61-62       61    62.00       2530.    
  6209 891-66-32       66    32.00       2519.    
  6210 891-71-64       71    64.00       2506.    
  6211 876-42-355      42    355.0       2552.    
     MULTIPLE LAYERS AND PROPORTIONS :    1, 0.35       2, 0.65
  6212 876-48-334      48    334.0       2539.    
     MULTIPLE LAYERS AND PROPORTIONS :    1, 0.35       2, 0.65
  6213 876-56-19       56    19.00       2544.    
     MULTIPLE LAYERS AND PROPORTIONS :    1, 0.35       2, 0.65
  6214 876-61-62       61    62.00       2538.    
     MULTIPLE LAYERS AND PROPORTIONS :    1, 0.35       2, 0.65
  6215 876-66-32       66    32.00       2526.    
     MULTIPLE LAYERS AND PROPORTIONS :    1, 0.35       2, 0.65
  6216 866-66-32       66    32.00       2529.    
  6217 866-71-64       71    64.00       2515.    
  6218 873-33-328      33    328.0       2565.    
  6219 918-42-355      42    355.0       2544.    
     MULTIPLE LAYERS AND PROPORTIONS :    1, 0.72       2, 0.28
  6220 906-37-28       37    28.00       2539.    
     MULTIPLE LAYERS AND PROPORTIONS :    1, 0.33       2, 0.42       3, 0.25
  6221 923-42-355      42    355.0       2541.    
  6222 923-48-334      48    334.0       2538.    
  6223 923-56-18       56    18.00       2533.    
  6224 849-42-356      42    356.0       2552.    
  6225 849-56-18       56    18.00       2543.    
  6226 3417-32-69      32    69.00       2618.    
     MULTIPLE LAYERS AND PROPORTIONS :    2, 0.14       3, 0.86
  6227 3417-35-23      35    23.00       2607.    
     MULTIPLE LAYERS AND PROPORTIONS :    2, 0.14       3, 0.86
  6228 3417-42-354     42    354.0       2615.    
     MULTIPLE LAYERS AND PROPORTIONS :    2, 0.14       3, 0.86
  6229 3417-48-335     48    335.0       2618.    
     MULTIPLE LAYERS AND PROPORTIONS :    2, 0.14       3, 0.86
  6230 3417-56-17      56    17.00       2606.    
     MULTIPLE LAYERS AND PROPORTIONS :    2, 0.14       3, 0.86
  6231 3417-61-53      61    53.00       2601.    
     MULTIPLE LAYERS AND PROPORTIONS :    2, 0.14       3, 0.86
  6232 1921-16-362     16    362.0       2735.    
  6233 1229-36-319     36    319.0       2700.    
  6234 1202-42-362     42    362.0       2739.    
  6235 1202-48-336     48    336.0       2748.    
  6236 1164-2-93        2    93.00       2771.    
  6237 1164-16-300     16    300.0       2748.    
  6238 1164-27-12      27    12.00       2758.    
  6239 1164-48-336     48    336.0       2788.    
  6240 1164-56-17      56    17.00       2792.    
  6241 1164-61-60      61    60.00       2780.    
  6242 1125-71-356     71    356.0       2768.    
  6243 1123-71-53      71    53.00       2768.    
  6244 1543-2-90        2    90.00       2922.    
  6245 1543-56-19      56    19.00       2860.    
  6246 1543-66-26      66    26.00       2873.    
  6247 1084-48-338     48    338.0       2852.    
  6248 1067-71-63      71    63.00       2781.    
  6249 1066-71-63      71    63.00       2777.    
  6250 1544-2-88        2    88.00       2878.    
  6251 1544-12-324     12    324.0       2840.    
  6252 1593-61-60      61    60.00       2797.    
  6253 1593-66-26      66    26.00       2774.    
  6254 1069-71-365     71    365.0       2691.    
  6255 1052-56-17      56    17.00       2728.    
  6256 1052-66-26      66    26.00       2705.    
  6257 989-66-20       66    20.00       2704.    
  6258 966-22-60       22    60.00       2729.    
  6259 987-12-324      12    324.0       2803.    
  6260 987-22-33       22    33.00       2814.    
  6261 987-27-12       27    12.00       2810.    
  6262 987-66-20       66    20.00       2825.    
  6263 858-71-63       71    63.00       2702.    
  6264 890-42-362      42    362.0       2717.    
     MULTIPLE LAYERS AND PROPORTIONS :    2, 0.81       3, 0.19
  6265 890-48-338      48    338.0       2730.    
     MULTIPLE LAYERS AND PROPORTIONS :    2, 0.81       3, 0.19
  6266 890-56-19       56    19.00       2730.    
     MULTIPLE LAYERS AND PROPORTIONS :    2, 0.81       3, 0.19
  6267 890-61-60       61    60.00       2726.    
     MULTIPLE LAYERS AND PROPORTIONS :    2, 0.81       3, 0.19
  6268 890-66-20       66    20.00       2715.    
     MULTIPLE LAYERS AND PROPORTIONS :    2, 0.81       3, 0.19
  6269 908-71-365      71    365.0       2689.    
  6270 667-17-5        17    5.000       2504.    
  6271 667-22-1        22    1.000       2502.    
  6272 667-27-14       27    14.00       2494.    
  6273 667-31-350      31    350.0       2499.    
  6274 667-37-340      37    340.0       2494.    
  6275 667-42-351      42    351.0       2499.    
  6276 667-48-348      48    348.0       2498.    
  6277 652-27-14       27    14.00       2504.    
  6278 652-56-17       56    17.00       2507.    
  6279 652-66-20       66    20.00       2507.    
  6280 614-27-14       27    14.00       2526.    
  6281 613-56-17       56    17.00       2525.    
  6282 641-1-260        1    260.0       2528.    
 Observation within a steady-state time step has been moved to the end of the time step.
  6283 641-26-1        26    1.000       2539.    
  6284 641-56-18       56    18.00       2538.    
  6285 641-66-31       66    31.00       2538.    
  6286 793-6-289        6    289.0       2382.    
     MULTIPLE LAYERS AND PROPORTIONS :    2, 0.19       3, 0.81
  6287 793-48-348      48    348.0       2377.    
     MULTIPLE LAYERS AND PROPORTIONS :    2, 0.19       3, 0.81
  6288 793-61-25       61    25.00       2381.    
     MULTIPLE LAYERS AND PROPORTIONS :    2, 0.19       3, 0.81
  6289 793-65-357      65    357.0       2380.    
     MULTIPLE LAYERS AND PROPORTIONS :    2, 0.19       3, 0.81
  6290 793-71-365      71    365.0       2382.    
     MULTIPLE LAYERS AND PROPORTIONS :    2, 0.19       3, 0.81
  6291 762-56-18       56    18.00       2383.    
  6292 762-61-61       61    61.00       2384.    
  6293 762-66-34       66    34.00       2383.    
  6294 758-48-348      48    348.0       2397.    
     MULTIPLE LAYERS AND PROPORTIONS :    2, 0.23       3, 0.77
  6295 758-55-353      55    353.0       2400.    
     MULTIPLE LAYERS AND PROPORTIONS :    2, 0.23       3, 0.77
  6296 758-61-25       61    25.00       2401.    
     MULTIPLE LAYERS AND PROPORTIONS :    2, 0.23       3, 0.77
  6297 758-65-362      65    362.0       2400.    
     MULTIPLE LAYERS AND PROPORTIONS :    2, 0.23       3, 0.77
  6298 758-71-365      71    365.0       2401.    
     MULTIPLE LAYERS AND PROPORTIONS :    2, 0.23       3, 0.77
  6299 766-10-104      10    104.0       2408.    
  6300 773-36-156      36    156.0       2387.    
  6301 722-8-276        8    276.0       2447.    
  6302 722-12-360      12    360.0       2448.    
  6303 722-22-3        22    3.000       2447.    
  6304 741-65-362      65    362.0       2421.    
  6305 741-71-365      71    365.0       2422.    
  6306 738-65-362      65    362.0       2422.    
  6307 738-71-365      71    365.0       2422.    
  6308 743-65-362      65    362.0       2421.    
  6309 743-71-365      71    365.0       2421.    
  6310 740-65-362      65    362.0       2421.    
  6311 740-71-365      71    365.0       2421.    
  6312 737-22-3        22    3.000       2416.    
  6313 737-48-348      48    348.0       2416.    
  6314 737-61-25       61    25.00       2418.    
  6315 737-65-362      65    362.0       2418.    
  6316 737-71-365      71    365.0       2418.    
  6317 723-12-180      12    180.0       2416.    
  6318 723-17-9        17    9.000       2414.    
  6319 723-22-1        22    1.000       2414.    
  6320 723-32-85       32    85.00       2411.    
  6321 748-61-61       61    61.00       2238.    
  6322 748-66-33       66    33.00       2227.    
  6323 714-56-19       56    19.00       2237.    
  6324 714-61-61       61    61.00       2235.    
  6325 715-56-17       56    17.00       2450.    
  6326 715-61-62       61    62.00       2457.    
  6327 715-66-35       66    35.00       2456.    
  6328 713-56-17       56    17.00       2455.    
  6329 713-66-35       66    35.00       2454.    
  6330 702-65-362      65    362.0       2463.    
  6331 702-71-365      71    365.0       2463.    
  6332 700-36-164      36    164.0       2460.    
  6333 700-55-353      55    353.0       2466.    
  6334 700-61-25       61    25.00       2467.    
  6335 700-65-362      65    362.0       2466.    
  6336 700-71-365      71    365.0       2467.    
  6337 671-27-14       27    14.00       2489.    
  6338 671-55-353      55    353.0       2494.    
  6339 671-61-25       61    25.00       2495.    
  6340 656-12-178      12    178.0       2494.    
  6341 656-56-17       56    17.00       2499.    
  6342 656-66-20       66    20.00       2499.    
  6343 656-71-365      71    365.0       2499.    
  6344 655-26-362      26    362.0       2408.    
  6345 655-32-85       32    85.00       2406.    
  6346 655-35-53       35    53.00       2401.    
  6347 655-56-18       56    18.00       2407.    
  6348 689-66-33       66    33.00       2257.    
  6349 688-71-365      71    365.0       2245.    
  6350 682-56-18       56    18.00       2351.    
  6351 636-56-18       56    18.00       2491.    
  6352 636-61-62       61    62.00       2491.    
  6353 636-66-20       66    20.00       2492.    
  6354 648-71-365      71    365.0       2482.    
  6355 601-48-348      48    348.0       2513.    
  6356 601-55-353      55    353.0       2504.    
  6357 601-61-34       61    34.00       2505.    
  6358 601-65-362      65    362.0       2505.    
  6359 601-71-365      71    365.0       2505.    
  6360 632-56-17       56    17.00       2501.    
  6361 632-66-20       66    20.00       2500.    
  6362 602-22-1        22    1.000       2498.    
  6363 579-56-18       56    18.00       2514.    
  6364 598-42-351      42    351.0       2491.    
  6365 598-48-348      48    348.0       2490.    
  6366 598-56-18       56    18.00       2494.    
  6367 598-60-323      60    323.0       2494.    
  6368 598-65-300      65    300.0       2493.    
  6369 598-71-365      71    365.0       2495.    
  6370 739-37-15       37    15.00       2205.    
  6371 739-48-341      48    341.0       2200.    
  6372 739-55-353      55    353.0       2197.    
  6373 739-61-34       61    34.00       2193.    
  6374 739-65-362      65    362.0       2190.    
  6375 739-71-365      71    365.0       2186.    
  6376 720-12-152      12    152.0       2215.    
  6377 720-17-9        17    9.000       2226.    
  6378 720-21-364      21    364.0       2222.    
  6379 720-66-34       66    34.00       2202.    
  6380 747-48-341      48    341.0       2159.    
  6381 747-55-346      55    346.0       2172.    
  6382 747-61-34       61    34.00       2161.    
  6383 747-65-362      65    362.0       2158.    
  6384 747-71-365      71    365.0       2157.    
  6385 717-27-13       27    13.00       2532.    
  6386 644-42-343      42    343.0       2450.    
  6387 625-42-343      42    343.0       2439.    
     MULTIPLE LAYERS AND PROPORTIONS :    2, 0.23       3, 0.77
  6388 620-42-343      42    343.0       2444.    
  6389 634-35-29       35    29.00       2574.    
  6390 634-42-322      42    322.0       2559.    
  6391 554-42-350      42    350.0       2595.    
  6392 561-42-349      42    349.0       2661.    
  6393 535-42-350      42    350.0       2638.    
  6394 577-22-34       22    34.00       2586.    
  6395 577-27-59       27    59.00       2549.    
  6396 577-31-339      31    339.0       2500.    
  6397 577-37-1        37    1.000       2481.    
  6398 577-42-343      42    343.0       2452.    
  6399 577-48-343      48    343.0       2460.    
  6400 577-56-16       56    16.00       2425.    
  6401 577-60-322      60    322.0       2411.    
  6402 577-65-302      65    302.0       2452.    
  6403 577-71-365      71    365.0       2473.    
  6404 581-1-365        1    365.0       2613.    
 Observation within a steady-state time step has been moved to the end of the time step.
  6405 582-42-343      42    343.0       2423.    
     MULTIPLE LAYERS AND PROPORTIONS :    2, 0.16       3, 0.84
  6406 582-56-16       56    16.00       2421.    
     MULTIPLE LAYERS AND PROPORTIONS :    2, 0.16       3, 0.84
  6407 586-27-56       27    56.00       2560.    
     MULTIPLE LAYERS AND PROPORTIONS :    2, 0.04       3, 0.96
  6408 586-37-316      37    316.0       2455.    
     MULTIPLE LAYERS AND PROPORTIONS :    2, 0.04       3, 0.96
  6409 586-42-343      42    343.0       2436.    
     MULTIPLE LAYERS AND PROPORTIONS :    2, 0.04       3, 0.96
  6410 586-56-16       56    16.00       2414.    
     MULTIPLE LAYERS AND PROPORTIONS :    2, 0.04       3, 0.96
  6411 586-61-55       61    55.00       2392.    
     MULTIPLE LAYERS AND PROPORTIONS :    2, 0.04       3, 0.96
  6412 586-66-46       66    46.00       2450.    
     MULTIPLE LAYERS AND PROPORTIONS :    2, 0.04       3, 0.96
  6413 553-22-39       22    39.00       2593.    
     MULTIPLE LAYERS AND PROPORTIONS :    2, 0.66       3, 0.34
  6414 553-26-299      26    299.0       2554.    
     MULTIPLE LAYERS AND PROPORTIONS :    2, 0.66       3, 0.34
  6415 553-31-348      31    348.0       2505.    
     MULTIPLE LAYERS AND PROPORTIONS :    2, 0.66       3, 0.34
  6416 553-36-21       36    21.00       2455.    
     MULTIPLE LAYERS AND PROPORTIONS :    2, 0.66       3, 0.34
  6417 584-22-44       22    44.00       2584.    
  6418 584-27-56       27    56.00       2547.    
  6419 584-31-339      31    339.0       2495.    
  6420 584-37-1        37    1.000       2474.    
  6421 584-42-343      42    343.0       2433.    
  6422 584-56-16       56    16.00       2410.    
  6423 584-61-55       61    55.00       2391.    
  6424 584-66-46       66    46.00       2446.    
  6425 585-22-44       22    44.00       2583.    
  6426 585-27-56       27    56.00       2547.    
  6427 585-31-339      31    339.0       2498.    
  6428 585-37-1        37    1.000       2467.    
  6429 585-42-343      42    343.0       2437.    
  6430 585-56-16       56    16.00       2417.    
  6431 585-61-55       61    55.00       2400.    
  6432 585-66-46       66    46.00       2434.    
  6433 557-38-1        38    1.000       2450.    
     MULTIPLE LAYERS AND PROPORTIONS :    2, 0.17       3, 0.83
  6434 557-42-343      42    343.0       2435.    
     MULTIPLE LAYERS AND PROPORTIONS :    2, 0.17       3, 0.83
  6435 557-66-46       66    46.00       2446.    
     MULTIPLE LAYERS AND PROPORTIONS :    2, 0.17       3, 0.83
  6436 548-1-365        1    365.0       2625.    
 Observation within a steady-state time step has been moved to the end of the time step.
  6437 575-17-55       17    55.00       2606.    
  6438 575-22-44       22    44.00       2585.    
  6439 575-26-299      26    299.0       2563.    
  6440 563-17-55       17    55.00       2608.    
     MULTIPLE LAYERS AND PROPORTIONS :    2, 0.17       3, 0.83
  6441 563-22-44       22    44.00       2582.    
     MULTIPLE LAYERS AND PROPORTIONS :    2, 0.17       3, 0.83
  6442 563-66-46       66    46.00       2450.    
     MULTIPLE LAYERS AND PROPORTIONS :    2, 0.17       3, 0.83
  6443 556-26-299      26    299.0       2555.    
  6444 556-31-335      31    335.0       2494.    
  6445 556-36-317      36    317.0       2441.    
  6446 556-56-10       56    10.00       2417.    
  6447 556-61-56       61    56.00       2388.    
  6448 556-66-34       66    34.00       2437.    
  6449 558-26-299      26    299.0       2562.    
     MULTIPLE LAYERS AND PROPORTIONS :    2, 0.08       3, 0.92
  6450 558-31-317      31    317.0       2494.    
     MULTIPLE LAYERS AND PROPORTIONS :    2, 0.08       3, 0.92
  6451 558-38-319      38    319.0       2491.    
     MULTIPLE LAYERS AND PROPORTIONS :    2, 0.08       3, 0.92
  6452 572-1-365        1    365.0       2603.    
 Observation within a steady-state time step has been moved to the end of the time step.
  6453 543-1-365        1    365.0       2605.    
 Observation within a steady-state time step has been moved to the end of the time step.
  6454 529-48-336      48    336.0       2480.    
     MULTIPLE LAYERS AND PROPORTIONS :    2, 0.04       3, 0.96
  6455 529-56-10       56    10.00       2437.    
     MULTIPLE LAYERS AND PROPORTIONS :    2, 0.04       3, 0.96
  6456 529-61-56       61    56.00       2410.    
     MULTIPLE LAYERS AND PROPORTIONS :    2, 0.04       3, 0.96
  6457 529-66-34       66    34.00       2445.    
     MULTIPLE LAYERS AND PROPORTIONS :    2, 0.04       3, 0.96
  6458 798-1-365        1    365.0       2539.    
 Observation within a steady-state time step has been moved to the end of the time step.
  6459 794-1-77         1    77.00       2534.    
 Observation within a steady-state time step has been moved to the end of the time step.
  6460 772-3-59         3    59.00       2562.    
  6461 792-1-365        1    365.0       2540.    
 Observation within a steady-state time step has been moved to the end of the time step.
  6462 790-1-274        1    274.0       2535.    
 Observation within a steady-state time step has been moved to the end of the time step.
  6463 790-6-286        6    286.0       2531.    
  6464 790-11-258      11    258.0       2529.    
  6465 790-17-4        17    4.000       2524.    
  6466 790-22-34       22    34.00       2517.    
  6467 790-27-53       27    53.00       2506.    
  6468 790-31-335      31    335.0       2490.    
  6469 790-37-32       37    32.00       2471.    
  6470 790-42-351      42    351.0       2453.    
  6471 790-48-337      48    337.0       2445.    
  6472 790-61-54       61    54.00       2443.    
  6473 783-1-274        1    274.0       2535.    
 Observation within a steady-state time step has been moved to the end of the time step.
  6474 783-6-288        6    288.0       2532.    
  6475 783-11-258      11    258.0       2528.    
  6476 783-17-4        17    4.000       2528.    
  6477 783-17-47       17    47.00       2528.    
  6478 783-22-34       22    34.00       2521.    
  6479 783-26-280      26    280.0       2507.    
  6480 783-31-335      31    335.0       2498.    
  6481 783-42-351      42    351.0       2458.    
  6482 783-61-54       61    54.00       2445.    
  6483 799-1-365        1    365.0       2542.    
 Observation within a steady-state time step has been moved to the end of the time step.
  6484 774-65-357      65    357.0       2494.    
  6485 774-71-362      71    362.0       2519.    
  6486 751-1-365        1    365.0       2570.    
 Observation within a steady-state time step has been moved to the end of the time step.
  6487 746-22-38       22    38.00       2536.    
     MULTIPLE LAYERS AND PROPORTIONS :    1, 0.47       2, 0.53
  6488 746-26-280      26    280.0       2500.    
     MULTIPLE LAYERS AND PROPORTIONS :    1, 0.47       2, 0.53
  6489 746-32-41       32    41.00       2498.    
     MULTIPLE LAYERS AND PROPORTIONS :    1, 0.47       2, 0.53
  6490 746-48-362      48    362.0       2477.    
     MULTIPLE LAYERS AND PROPORTIONS :    1, 0.47       2, 0.53
  6491 746-56-9        56    9.000       2486.    
     MULTIPLE LAYERS AND PROPORTIONS :    1, 0.47       2, 0.53
  6492 746-61-47       61    47.00       2486.    
     MULTIPLE LAYERS AND PROPORTIONS :    1, 0.47       2, 0.53
  6493 746-65-357      65    357.0       2520.    
     MULTIPLE LAYERS AND PROPORTIONS :    1, 0.47       2, 0.53
  6494 746-71-362      71    362.0       2538.    
     MULTIPLE LAYERS AND PROPORTIONS :    1, 0.47       2, 0.53
  6495 745-1-55         1    55.00       2556.    
 Observation within a steady-state time step has been moved to the end of the time step.
  6496 754-48-342      48    342.0       2454.    
  6497 754-56-18       56    18.00       2468.    
  6498 754-61-53       61    53.00       2463.    
  6499 754-66-32       66    32.00       2491.    
  6500 721-12-313      12    313.0       2560.    
  6501 721-17-52       17    52.00       2559.    
  6502 721-22-38       22    38.00       2545.    
  6503 721-26-287      26    287.0       2529.    
  6504 721-31-335      31    335.0       2519.    
  6505 721-36-318      36    318.0       2501.    
  6506 721-42-350      42    350.0       2487.    
  6507 721-48-343      48    343.0       2496.    
  6508 721-56-19       56    19.00       2501.    
  6509 721-61-55       61    55.00       2517.    
  6510 721-66-46       66    46.00       2551.    
  6511 729-43-4        43    4.000       2481.    
     MULTIPLE LAYERS AND PROPORTIONS :    1, 0.47       2, 0.53
  6512 729-48-362      48    362.0       2483.    
     MULTIPLE LAYERS AND PROPORTIONS :    1, 0.47       2, 0.53
  6513 729-56-9        56    9.000       2494.    
     MULTIPLE LAYERS AND PROPORTIONS :    1, 0.47       2, 0.53
  6514 729-66-1        66    1.000       2530.    
     MULTIPLE LAYERS AND PROPORTIONS :    1, 0.47       2, 0.53
  6515 729-71-362      71    362.0       2550.    
     MULTIPLE LAYERS AND PROPORTIONS :    1, 0.47       2, 0.53
  6516 706-17-52       17    52.00       2567.    
     MULTIPLE LAYERS AND PROPORTIONS :    1, 0.87       2, 0.13
  6517 706-22-37       22    37.00       2551.    
     MULTIPLE LAYERS AND PROPORTIONS :    1, 0.87       2, 0.13
  6518 706-27-62       27    62.00       2534.    
     MULTIPLE LAYERS AND PROPORTIONS :    1, 0.87       2, 0.13
  6519 706-31-335      31    335.0       2512.    
     MULTIPLE LAYERS AND PROPORTIONS :    1, 0.87       2, 0.13
  6520 706-43-4        43    4.000       2494.    
     MULTIPLE LAYERS AND PROPORTIONS :    1, 0.87       2, 0.13
  6521 706-48-362      48    362.0       2496.    
     MULTIPLE LAYERS AND PROPORTIONS :    1, 0.87       2, 0.13
  6522 706-56-9        56    9.000       2500.    
     MULTIPLE LAYERS AND PROPORTIONS :    1, 0.87       2, 0.13
  6523 706-61-47       61    47.00       2502.    
     MULTIPLE LAYERS AND PROPORTIONS :    1, 0.87       2, 0.13
  6524 706-65-357      65    357.0       2537.    
     MULTIPLE LAYERS AND PROPORTIONS :    1, 0.87       2, 0.13
  6525 706-71-362      71    362.0       2557.    
     MULTIPLE LAYERS AND PROPORTIONS :    1, 0.87       2, 0.13
  6526 694-17-52       17    52.00       2576.    
  6527 694-22-38       22    38.00       2562.    
  6528 694-26-285      26    285.0       2534.    
  6529 694-31-344      31    344.0       2513.    
  6530 694-36-354      36    354.0       2476.    
  6531 694-43-4        43    4.000       2493.    
  6532 694-48-362      48    362.0       2498.    
  6533 694-56-9        56    9.000       2505.    
  6534 694-61-47       61    47.00       2504.    
  6535 694-65-357      65    357.0       2533.    
  6536 694-71-362      71    362.0       2554.    
  6537 716-1-365        1    365.0       2575.    
 Observation within a steady-state time step has been moved to the end of the time step.
  6538 719-12-121      12    121.0       2562.    
     MULTIPLE LAYERS AND PROPORTIONS :    1, 0.93       2, 0.07
  6539 708-8-302        8    302.0       2566.    
     MULTIPLE LAYERS AND PROPORTIONS :    1, 0.83       2, 0.17
  6540 708-12-64       12    64.00       2563.    
     MULTIPLE LAYERS AND PROPORTIONS :    1, 0.83       2, 0.17
  6541 708-17-3        17    3.000       2561.    
     MULTIPLE LAYERS AND PROPORTIONS :    1, 0.83       2, 0.17
  6542 708-22-38       22    38.00       2547.    
     MULTIPLE LAYERS AND PROPORTIONS :    1, 0.83       2, 0.17
  6543 708-26-287      26    287.0       2532.    
     MULTIPLE LAYERS AND PROPORTIONS :    1, 0.83       2, 0.17
  6544 708-31-335      31    335.0       2523.    
     MULTIPLE LAYERS AND PROPORTIONS :    1, 0.83       2, 0.17
  6545 708-42-350      42    350.0       2497.    
     MULTIPLE LAYERS AND PROPORTIONS :    1, 0.83       2, 0.17
  6546 708-48-343      48    343.0       2502.    
     MULTIPLE LAYERS AND PROPORTIONS :    1, 0.83       2, 0.17
  6547 685-1-365        1    365.0       2591.    
 Observation within a steady-state time step has been moved to the end of the time step.
  6548 674-22-38       22    38.00       2556.    
     MULTIPLE LAYERS AND PROPORTIONS :    1, 0.84       2, 0.16
  6549 674-31-344      31    344.0       2533.    
     MULTIPLE LAYERS AND PROPORTIONS :    1, 0.84       2, 0.16
  6550 674-42-350      42    350.0       2506.    
     MULTIPLE LAYERS AND PROPORTIONS :    1, 0.84       2, 0.16
  6551 674-48-343      48    343.0       2513.    
     MULTIPLE LAYERS AND PROPORTIONS :    1, 0.84       2, 0.16
  6552 674-56-19       56    19.00       2518.    
     MULTIPLE LAYERS AND PROPORTIONS :    1, 0.84       2, 0.16
  6553 674-61-60       61    60.00       2556.    
     MULTIPLE LAYERS AND PROPORTIONS :    1, 0.84       2, 0.16
  6554 674-66-48       66    48.00       2580.    
     MULTIPLE LAYERS AND PROPORTIONS :    1, 0.84       2, 0.16
  6555 676-27-10       27    10.00       2543.    
     MULTIPLE LAYERS AND PROPORTIONS :    1, 0.54       2, 0.46
  6556 687-17-3        17    3.000       2567.    
     MULTIPLE LAYERS AND PROPORTIONS :    1, 0.69       2, 0.31
  6557 687-22-38       22    38.00       2551.    
     MULTIPLE LAYERS AND PROPORTIONS :    1, 0.69       2, 0.31
  6558 687-27-11       27    11.00       2542.    
     MULTIPLE LAYERS AND PROPORTIONS :    1, 0.69       2, 0.31
  6559 687-42-350      42    350.0       2486.    
     MULTIPLE LAYERS AND PROPORTIONS :    1, 0.69       2, 0.31
  6560 687-48-343      48    343.0       2502.    
     MULTIPLE LAYERS AND PROPORTIONS :    1, 0.69       2, 0.31
  6561 687-56-19       56    19.00       2504.    
     MULTIPLE LAYERS AND PROPORTIONS :    1, 0.69       2, 0.31
  6562 687-61-55       61    55.00       2542.    
     MULTIPLE LAYERS AND PROPORTIONS :    1, 0.69       2, 0.31
  6563 687-66-46       66    46.00       2569.    
     MULTIPLE LAYERS AND PROPORTIONS :    1, 0.69       2, 0.31
  6564 686-56-19       56    19.00       2495.    
     MULTIPLE LAYERS AND PROPORTIONS :    1, 0.21       2, 0.32       3, 0.47
  6565 686-66-46       66    46.00       2558.    
     MULTIPLE LAYERS AND PROPORTIONS :    1, 0.21       2, 0.32       3, 0.47
  6566 677-17-53       17    53.00       2576.    
  6567 677-22-38       22    38.00       2559.    
  6568 677-26-299      26    299.0       2550.    
  6569 677-31-337      31    337.0       2534.    
  6570 677-37-336      37    336.0       2522.    
  6571 677-42-350      42    350.0       2496.    
  6572 677-48-343      48    343.0       2506.    
  6573 677-56-19       56    19.00       2507.    
  6574 677-61-55       61    55.00       2540.    
  6575 677-66-46       66    46.00       2576.    
  6576 675-5-102        5    102.0       2577.    
  6577 675-11-305      11    305.0       2574.    
  6578 675-27-11       27    11.00       2549.    
  6579 665-17-53       17    53.00       2574.    
  6580 665-22-38       22    38.00       2554.    
  6581 665-27-11       27    11.00       2551.    
  6582 665-36-357      36    357.0       2509.    
  6583 665-42-350      42    350.0       2499.    
  6584 665-56-19       56    19.00       2510.    
  6585 665-61-55       61    55.00       2552.    
  6586 665-66-46       66    46.00       2586.    
  6587 657-48-343      48    343.0       2507.    
  6588 649-3-294        3    294.0       2582.    
  6589 649-6-290        6    290.0       2584.    
  6590 649-11-307      11    307.0       2579.    
  6591 649-17-3        17    3.000       2574.    
  6592 649-22-38       22    38.00       2549.    
  6593 649-26-287      26    287.0       2552.    
  6594 649-31-335      31    335.0       2532.    
  6595 649-38-60       38    60.00       2521.    
  6596 649-42-350      42    350.0       2502.    
  6597 649-48-343      48    343.0       2512.    
  6598 649-56-19       56    19.00       2516.    
  6599 649-61-55       61    55.00       2570.    
  6600 651-3-294        3    294.0       2582.    
  6601 651-6-290        6    290.0       2584.    
  6602 651-11-307      11    307.0       2579.    
  6603 651-17-52       17    52.00       2575.    
  6604 651-27-11       27    11.00       2555.    
  6605 651-42-350      42    350.0       2502.    
  6606 651-48-343      48    343.0       2513.    
  6607 651-56-19       56    19.00       2517.    
  6608 651-61-60       61    60.00       2571.    
  6609 651-66-46       66    46.00       2592.    
  6610 679-17-52       17    52.00       2569.    
     MULTIPLE LAYERS AND PROPORTIONS :    1, 0.95       2, 0.05
  6611 679-22-37       22    37.00       2550.    
     MULTIPLE LAYERS AND PROPORTIONS :    1, 0.95       2, 0.05
  6612 679-26-336      26    336.0       2534.    
     MULTIPLE LAYERS AND PROPORTIONS :    1, 0.95       2, 0.05
  6613 679-48-362      48    362.0       2499.    
     MULTIPLE LAYERS AND PROPORTIONS :    1, 0.95       2, 0.05
  6614 679-56-9        56    9.000       2503.    
     MULTIPLE LAYERS AND PROPORTIONS :    1, 0.95       2, 0.05
  6615 679-61-47       61    47.00       2506.    
     MULTIPLE LAYERS AND PROPORTIONS :    1, 0.95       2, 0.05
  6616 679-65-357      65    357.0       2539.    
     MULTIPLE LAYERS AND PROPORTIONS :    1, 0.95       2, 0.05
  6617 679-71-362      71    362.0       2559.    
     MULTIPLE LAYERS AND PROPORTIONS :    1, 0.95       2, 0.05
  6618 680-17-52       17    52.00       2574.    
     MULTIPLE LAYERS AND PROPORTIONS :    1, 0.52       2, 0.48
  6619 680-22-82       22    82.00       2554.    
     MULTIPLE LAYERS AND PROPORTIONS :    1, 0.52       2, 0.48
  6620 680-27-62       27    62.00       2543.    
     MULTIPLE LAYERS AND PROPORTIONS :    1, 0.52       2, 0.48
  6621 680-31-335      31    335.0       2516.    
     MULTIPLE LAYERS AND PROPORTIONS :    1, 0.52       2, 0.48
  6622 680-39-60       39    60.00       2491.    
     MULTIPLE LAYERS AND PROPORTIONS :    1, 0.52       2, 0.48
  6623 680-43-4        43    4.000       2504.    
     MULTIPLE LAYERS AND PROPORTIONS :    1, 0.52       2, 0.48
  6624 680-48-362      48    362.0       2506.    
     MULTIPLE LAYERS AND PROPORTIONS :    1, 0.52       2, 0.48
  6625 680-56-9        56    9.000       2508.    
     MULTIPLE LAYERS AND PROPORTIONS :    1, 0.52       2, 0.48
  6626 680-61-47       61    47.00       2508.    
     MULTIPLE LAYERS AND PROPORTIONS :    1, 0.52       2, 0.48
  6627 680-65-357      65    357.0       2540.    
     MULTIPLE LAYERS AND PROPORTIONS :    1, 0.52       2, 0.48
  6628 680-71-362      71    362.0       2560.    
     MULTIPLE LAYERS AND PROPORTIONS :    1, 0.52       2, 0.48
  6629 684-17-52       17    52.00       2569.    
     MULTIPLE LAYERS AND PROPORTIONS :    1, 0.73       2, 0.27
  6630 684-22-37       22    37.00       2552.    
     MULTIPLE LAYERS AND PROPORTIONS :    1, 0.73       2, 0.27
  6631 684-26-349      26    349.0       2529.    
     MULTIPLE LAYERS AND PROPORTIONS :    1, 0.73       2, 0.27
  6632 684-31-335      31    335.0       2515.    
     MULTIPLE LAYERS AND PROPORTIONS :    1, 0.73       2, 0.27
  6633 684-48-362      48    362.0       2497.    
     MULTIPLE LAYERS AND PROPORTIONS :    1, 0.73       2, 0.27
  6634 684-56-9        56    9.000       2504.    
     MULTIPLE LAYERS AND PROPORTIONS :    1, 0.73       2, 0.27
  6635 684-66-1        66    1.000       2542.    
     MULTIPLE LAYERS AND PROPORTIONS :    1, 0.73       2, 0.27
  6636 684-71-362      71    362.0       2561.    
     MULTIPLE LAYERS AND PROPORTIONS :    1, 0.73       2, 0.27
  6637 664-1-365        1    365.0       2593.    
 Observation within a steady-state time step has been moved to the end of the time step.
  6638 654-12-67       12    67.00       2578.    
     MULTIPLE LAYERS AND PROPORTIONS :    1, 0.83       2, 0.17
  6639 654-17-52       17    52.00       2574.    
     MULTIPLE LAYERS AND PROPORTIONS :    1, 0.83       2, 0.17
  6640 654-22-37       22    37.00       2548.    
     MULTIPLE LAYERS AND PROPORTIONS :    1, 0.83       2, 0.17
  6641 654-26-285      26    285.0       2532.    
     MULTIPLE LAYERS AND PROPORTIONS :    1, 0.83       2, 0.17
  6642 654-31-335      31    335.0       2524.    
     MULTIPLE LAYERS AND PROPORTIONS :    1, 0.83       2, 0.17
  6643 654-38-32       38    32.00       2520.    
     MULTIPLE LAYERS AND PROPORTIONS :    1, 0.83       2, 0.17
  6644 654-42-349      42    349.0       2476.    
     MULTIPLE LAYERS AND PROPORTIONS :    1, 0.83       2, 0.17
  6645 654-48-343      48    343.0       2493.    
     MULTIPLE LAYERS AND PROPORTIONS :    1, 0.83       2, 0.17
  6646 654-56-19       56    19.00       2506.    
     MULTIPLE LAYERS AND PROPORTIONS :    1, 0.83       2, 0.17
  6647 654-61-60       61    60.00       2512.    
     MULTIPLE LAYERS AND PROPORTIONS :    1, 0.83       2, 0.17
  6648 654-66-49       66    49.00       2540.    
     MULTIPLE LAYERS AND PROPORTIONS :    1, 0.83       2, 0.17
  6649 658-32-41       32    41.00       2519.    
  6650 658-36-357      36    357.0       2482.    
  6651 658-43-4        43    4.000       2484.    
  6652 658-48-362      48    362.0       2493.    
  6653 658-56-9        56    9.000       2515.    
  6654 658-61-47       61    47.00       2509.    
  6655 658-65-357      65    357.0       2542.    
  6656 658-71-362      71    362.0       2564.    
  6657 673-35-360      35    360.0       2507.    
     MULTIPLE LAYERS AND PROPORTIONS :    1, 0.32       2, 0.68
  6658 673-56-9        56    9.000       2508.    
     MULTIPLE LAYERS AND PROPORTIONS :    1, 0.32       2, 0.68
  6659 673-61-47       61    47.00       2504.    
     MULTIPLE LAYERS AND PROPORTIONS :    1, 0.32       2, 0.68
  6660 673-65-357      65    357.0       2527.    
     MULTIPLE LAYERS AND PROPORTIONS :    1, 0.32       2, 0.68
  6661 673-70-334      70    334.0       2545.    
     MULTIPLE LAYERS AND PROPORTIONS :    1, 0.32       2, 0.68
  6662 673-71-362      71    362.0       2550.    
     MULTIPLE LAYERS AND PROPORTIONS :    1, 0.32       2, 0.68
  6663 653-32-41       32    41.00       2506.    
     MULTIPLE LAYERS AND PROPORTIONS :    1, 0.42       2, 0.58
  6664 653-39-32       39    32.00       2513.    
     MULTIPLE LAYERS AND PROPORTIONS :    1, 0.42       2, 0.58
  6665 653-43-4        43    4.000       2493.    
     MULTIPLE LAYERS AND PROPORTIONS :    1, 0.42       2, 0.58
  6666 653-48-362      48    362.0       2495.    
     MULTIPLE LAYERS AND PROPORTIONS :    1, 0.42       2, 0.58
  6667 653-56-9        56    9.000       2514.    
     MULTIPLE LAYERS AND PROPORTIONS :    1, 0.42       2, 0.58
  6668 653-61-47       61    47.00       2500.    
     MULTIPLE LAYERS AND PROPORTIONS :    1, 0.42       2, 0.58
  6669 653-65-357      65    357.0       2517.    
     MULTIPLE LAYERS AND PROPORTIONS :    1, 0.42       2, 0.58
  6670 653-71-362      71    362.0       2552.    
     MULTIPLE LAYERS AND PROPORTIONS :    1, 0.42       2, 0.58
  6671 642-36-352      36    352.0       2607.    
  6672 642-43-4        43    4.000       2588.    
  6673 642-48-362      48    362.0       2581.    
  6674 642-56-9        56    9.000       2580.    
  6675 642-61-47       61    47.00       2572.    
  6676 642-65-357      65    357.0       2568.    
  6677 642-71-362      71    362.0       2571.    
  6678 637-26-295      26    295.0       2608.    
     MULTIPLE LAYERS AND PROPORTIONS :    2, 0.23       3, 0.77
  6679 637-31-349      31    349.0       2611.    
     MULTIPLE LAYERS AND PROPORTIONS :    2, 0.23       3, 0.77
  6680 637-36-352      36    352.0       2607.    
     MULTIPLE LAYERS AND PROPORTIONS :    2, 0.23       3, 0.77
  6681 637-43-4        43    4.000       2578.    
     MULTIPLE LAYERS AND PROPORTIONS :    2, 0.23       3, 0.77
  6682 637-48-362      48    362.0       2568.    
     MULTIPLE LAYERS AND PROPORTIONS :    2, 0.23       3, 0.77
  6683 637-56-9        56    9.000       2569.    
     MULTIPLE LAYERS AND PROPORTIONS :    2, 0.23       3, 0.77
  6684 637-61-47       61    47.00       2559.    
     MULTIPLE LAYERS AND PROPORTIONS :    2, 0.23       3, 0.77
  6685 637-65-357      65    357.0       2553.    
     MULTIPLE LAYERS AND PROPORTIONS :    2, 0.23       3, 0.77
  6686 637-71-362      71    362.0       2566.    
     MULTIPLE LAYERS AND PROPORTIONS :    2, 0.23       3, 0.77
  6687 624-7-99         7    99.00       2610.    
  6688 624-12-103      12    103.0       2609.    
  6689 624-17-52       17    52.00       2607.    
  6690 624-22-39       22    39.00       2605.    
  6691 624-27-5        27    5.000       2602.    
  6692 624-32-1        32    1.000       2598.    
  6693 595-37-32       37    32.00       2599.    
     MULTIPLE LAYERS AND PROPORTIONS :    1, 0.25       2, 0.25       3, 0.50
  6694 595-43-4        43    4.000       2582.    
     MULTIPLE LAYERS AND PROPORTIONS :    1, 0.25       2, 0.25       3, 0.50
  6695 595-48-362      48    362.0       2558.    
     MULTIPLE LAYERS AND PROPORTIONS :    1, 0.25       2, 0.25       3, 0.50
  6696 595-56-9        56    9.000       2570.    
     MULTIPLE LAYERS AND PROPORTIONS :    1, 0.25       2, 0.25       3, 0.50
  6697 595-61-47       61    47.00       2560.    
     MULTIPLE LAYERS AND PROPORTIONS :    2, 0.50       3, 0.50
  6698 595-65-357      65    357.0       2558.    
     MULTIPLE LAYERS AND PROPORTIONS :    1, 0.25       2, 0.25       3, 0.50
  6699 595-71-362      71    362.0       2564.    
     MULTIPLE LAYERS AND PROPORTIONS :    1, 0.25       2, 0.25       3, 0.50
  6700 604-31-323      31    323.0       2609.    
     MULTIPLE LAYERS AND PROPORTIONS :    2, 0.71       3, 0.29
  6701 604-37-32       37    32.00       2621.    
     MULTIPLE LAYERS AND PROPORTIONS :    2, 0.71       3, 0.29
  6702 604-43-4        43    4.000       2602.    
     MULTIPLE LAYERS AND PROPORTIONS :    2, 0.71       3, 0.29
  6703 604-48-362      48    362.0       2594.    
     MULTIPLE LAYERS AND PROPORTIONS :    2, 0.71       3, 0.29
  6704 604-56-9        56    9.000       2588.    
     MULTIPLE LAYERS AND PROPORTIONS :    2, 0.71       3, 0.29
  6705 604-61-47       61    47.00       2574.    
     MULTIPLE LAYERS AND PROPORTIONS :    2, 0.71       3, 0.29
  6706 604-65-357      65    357.0       2571.    
     MULTIPLE LAYERS AND PROPORTIONS :    2, 0.71       3, 0.29
  6707 604-71-362      71    362.0       2569.    
     MULTIPLE LAYERS AND PROPORTIONS :    2, 0.71       3, 0.29
  6708 596-36-352      36    352.0       2575.    
     MULTIPLE LAYERS AND PROPORTIONS :    2, 0.35       3, 0.65
  6709 596-43-4        43    4.000       2524.    
     MULTIPLE LAYERS AND PROPORTIONS :    2, 0.35       3, 0.65
  6710 596-48-362      48    362.0       2513.    
     MULTIPLE LAYERS AND PROPORTIONS :    2, 0.35       3, 0.65
  6711 596-56-9        56    9.000       2539.    
     MULTIPLE LAYERS AND PROPORTIONS :    2, 0.35       3, 0.65
  6712 596-61-47       61    47.00       2514.    
     MULTIPLE LAYERS AND PROPORTIONS :    2, 0.35       3, 0.65
  6713 596-65-357      65    357.0       2515.    
     MULTIPLE LAYERS AND PROPORTIONS :    2, 0.35       3, 0.65
  6714 596-71-362      71    362.0       2556.    
     MULTIPLE LAYERS AND PROPORTIONS :    2, 0.35       3, 0.65
  6715 609-43-4        43    4.000       2521.    
     MULTIPLE LAYERS AND PROPORTIONS :    1, 0.39       2, 0.61
  6716 609-56-9        56    9.000       2525.    
     MULTIPLE LAYERS AND PROPORTIONS :    1, 0.39       2, 0.61
  6717 609-61-47       61    47.00       2518.    
     MULTIPLE LAYERS AND PROPORTIONS :    1, 0.39       2, 0.61
  6718 609-65-357      65    357.0       2540.    
     MULTIPLE LAYERS AND PROPORTIONS :    1, 0.39       2, 0.61
  6719 609-71-362      71    362.0       2563.    
     MULTIPLE LAYERS AND PROPORTIONS :    1, 0.39       2, 0.61
  6720 639-27-10       27    10.00       2551.    
  6721 639-66-49       66    49.00       2549.    
  6722 626-27-10       27    10.00       2555.    
  6723 626-42-349      42    349.0       2510.    
  6724 626-48-343      48    343.0       2512.    
  6725 626-56-19       56    19.00       2525.    
  6726 626-61-60       61    60.00       2519.    
  6727 626-66-49       66    49.00       2548.    
  6728 635-17-52       17    52.00       2587.    
  6729 635-22-38       22    38.00       2568.    
  6730 635-26-280      26    280.0       2551.    
  6731 635-42-349      42    349.0       2495.    
  6732 635-48-343      48    343.0       2520.    
  6733 635-56-19       56    19.00       2524.    
  6734 635-61-60       61    60.00       2522.    
  6735 635-66-49       66    49.00       2547.    
  6736 629-11-307      11    307.0       2590.    
  6737 629-16-364      16    364.0       2586.    
  6738 629-21-332      21    332.0       2577.    
  6739 629-26-287      26    287.0       2575.    
  6740 629-31-335      31    335.0       2555.    
  6741 629-37-32       37    32.00       2545.    
  6742 629-48-343      48    343.0       2540.    
  6743 629-56-23       56    23.00       2541.    
  6744 629-61-60       61    60.00       2574.    
  6745 629-66-46       66    46.00       2595.    
  6746 628-11-307      11    307.0       2587.    
  6747 628-17-52       17    52.00       2582.    
  6748 628-36-356      36    356.0       2511.    
  6749 628-42-349      42    349.0       2508.    
  6750 628-48-343      48    343.0       2521.    
  6751 628-56-19       56    19.00       2531.    
  6752 628-61-60       61    60.00       2532.    
  6753 628-66-46       66    46.00       2549.    
  6754 630-12-310      12    310.0       2581.    
     MULTIPLE LAYERS AND PROPORTIONS :    1, 0.66       2, 0.34
  6755 630-17-3        17    3.000       2586.    
     MULTIPLE LAYERS AND PROPORTIONS :    1, 0.66       2, 0.34
  6756 630-22-38       22    38.00       2558.    
     MULTIPLE LAYERS AND PROPORTIONS :    1, 0.66       2, 0.34
  6757 630-27-11       27    11.00       2563.    
     MULTIPLE LAYERS AND PROPORTIONS :    1, 0.66       2, 0.34
  6758 630-36-357      36    357.0       2528.    
     MULTIPLE LAYERS AND PROPORTIONS :    1, 0.66       2, 0.34
  6759 630-42-350      42    350.0       2531.    
     MULTIPLE LAYERS AND PROPORTIONS :    1, 0.66       2, 0.34
  6760 630-48-343      48    343.0       2536.    
     MULTIPLE LAYERS AND PROPORTIONS :    1, 0.66       2, 0.34
  6761 630-56-19       56    19.00       2538.    
     MULTIPLE LAYERS AND PROPORTIONS :    1, 0.66       2, 0.34
  6762 630-61-60       61    60.00       2582.    
     MULTIPLE LAYERS AND PROPORTIONS :    1, 0.66       2, 0.34
  6763 630-66-46       66    46.00       2596.    
     MULTIPLE LAYERS AND PROPORTIONS :    1, 0.66       2, 0.34
  6764 631-17-3        17    3.000       2582.    
     MULTIPLE LAYERS AND PROPORTIONS :    1, 0.42       2, 0.58
  6765 631-22-32       22    32.00       2552.    
     MULTIPLE LAYERS AND PROPORTIONS :    1, 0.42       2, 0.58
  6766 631-26-289      26    289.0       2555.    
     MULTIPLE LAYERS AND PROPORTIONS :    1, 0.42       2, 0.58
  6767 631-31-335      31    335.0       2534.    
     MULTIPLE LAYERS AND PROPORTIONS :    1, 0.42       2, 0.58
  6768 631-33-335      33    335.0       2527.    
     MULTIPLE LAYERS AND PROPORTIONS :    1, 0.42       2, 0.58
  6769 631-42-350      42    350.0       2508.    
  6770 631-48-343      48    343.0       2519.    
  6771 631-56-19       56    19.00       2524.    
  6772 631-61-55       61    55.00       2581.    
  6773 631-66-46       66    46.00       2598.    
  6774 593-27-11       27    11.00       2564.    
  6775 593-61-55       61    55.00       2584.    
  6776 593-66-46       66    46.00       2601.    
  6777 592-1-365        1    365.0       2597.    
 Observation within a steady-state time step has been moved to the end of the time step.
  6778 587-7-101        7    101.0       2597.    
     MULTIPLE LAYERS AND PROPORTIONS :    1, 0.40       2, 0.36       3, 0.24
  6779 587-11-307      11    307.0       2592.    
     MULTIPLE LAYERS AND PROPORTIONS :    1, 0.40       2, 0.36       3, 0.24
  6780 587-17-53       17    53.00       2588.    
     MULTIPLE LAYERS AND PROPORTIONS :    1, 0.40       2, 0.36       3, 0.24
  6781 587-26-287      26    287.0       2560.    
     MULTIPLE LAYERS AND PROPORTIONS :    1, 0.40       2, 0.36       3, 0.24
  6782 587-31-335      31    335.0       2541.    
     MULTIPLE LAYERS AND PROPORTIONS :    1, 0.40       2, 0.36       3, 0.24
  6783 587-38-60       38    60.00       2529.    
     MULTIPLE LAYERS AND PROPORTIONS :    2, 0.76       3, 0.24
  6784 587-42-350      42    350.0       2514.    
     MULTIPLE LAYERS AND PROPORTIONS :    2, 0.76       3, 0.24
  6785 587-48-343      48    343.0       2528.    
     MULTIPLE LAYERS AND PROPORTIONS :    2, 0.76       3, 0.24
  6786 587-56-19       56    19.00       2533.    
     MULTIPLE LAYERS AND PROPORTIONS :    2, 0.76       3, 0.24
  6787 587-61-55       61    55.00       2583.    
  6788 587-66-46       66    46.00       2601.    
  6789 591-11-333      11    333.0       2581.    
  6790 591-17-53       17    53.00       2583.    
  6791 591-42-350      42    350.0       2513.    
  6792 597-6-79         6    79.00       2592.    
  6793 597-11-307      11    307.0       2591.    
  6794 597-17-53       17    53.00       2582.    
  6795 597-26-287      26    287.0       2562.    
  6796 597-42-350      42    350.0       2512.    
  6797 597-48-343      48    343.0       2526.    
  6798 597-56-19       56    19.00       2531.    
  6799 597-61-60       61    60.00       2565.    
  6800 597-66-46       66    46.00       2587.    
  6801 607-42-349      42    349.0       2527.    
  6802 607-48-343      48    343.0       2540.    
  6803 607-56-23       56    23.00       2545.    
  6804 607-61-60       61    60.00       2554.    
  6805 607-66-46       66    46.00       2584.    
  6806 568-48-343      48    343.0       2551.    
     MULTIPLE LAYERS AND PROPORTIONS :    1, 0.68       2, 0.32
  6807 568-56-10       56    10.00       2554.    
     MULTIPLE LAYERS AND PROPORTIONS :    1, 0.68       2, 0.32
  6808 568-61-61       61    61.00       2538.    
     MULTIPLE LAYERS AND PROPORTIONS :    1, 0.68       2, 0.32
  6809 560-1-358        1    358.0       2617.    
 Observation within a steady-state time step has been moved to the end of the time step.
     MULTIPLE LAYERS AND PROPORTIONS :    1, 0.77       2, 0.23
  6810 560-6-340        6    340.0       2617.    
     MULTIPLE LAYERS AND PROPORTIONS :    1, 0.77       2, 0.23
  6811 560-10-349      10    349.0       2599.    
     MULTIPLE LAYERS AND PROPORTIONS :    1, 0.77       2, 0.23
  6812 545-38-6        38    6.000       2479.    
     MULTIPLE LAYERS AND PROPORTIONS :    1, 0.18       2, 0.12       3, 0.70
  6813 545-42-356      42    356.0       2524.    
     MULTIPLE LAYERS AND PROPORTIONS :    1, 0.18       2, 0.12       3, 0.70
  6814 538-1-365        1    365.0       2620.    
 Observation within a steady-state time step has been moved to the end of the time step.
     MULTIPLE LAYERS AND PROPORTIONS :    1, 0.97       2, 0.03
  6815 517-7-49         7    49.00       2615.    
  6816 574-56-24       56    24.00       2534.    
  6817 574-61-61       61    61.00       2529.    
  6818 574-66-33       66    33.00       2544.    
  6819 580-1-365        1    365.0       2614.    
 Observation within a steady-state time step has been moved to the end of the time step.
  6820 555-8-357        8    357.0       2608.    
  6821 555-12-67       12    67.00       2604.    
  6822 555-27-10       27    10.00       2570.    
  6823 555-31-335      31    335.0       2561.    
  6824 555-38-60       38    60.00       2550.    
  6825 555-56-24       56    24.00       2557.    
  6826 555-61-60       61    60.00       2550.    
  6827 555-66-33       66    33.00       2562.    
  6828 547-1-365        1    365.0       2616.    
 Observation within a steady-state time step has been moved to the end of the time step.
  6829 546-27-10       27    10.00       2574.    
  6830 539-56-10       56    10.00       2551.    
  6831 539-61-60       61    60.00       2539.    
  6832 539-66-33       66    33.00       2553.    
  6833 573-48-362      48    362.0       2549.    
  6834 573-56-9        56    9.000       2550.    
  6835 573-71-362      71    362.0       2581.    
  6836 808-48-335      48    335.0       2558.    
  6837 808-66-33       66    33.00       2546.    
  6838 808-71-61       71    61.00       2531.    
  6839 807-26-349      26    349.0       2539.    
  6840 807-43-4        43    4.000       2524.    
  6841 807-48-341      48    341.0       2491.    
  6842 805-56-9        56    9.000       2512.    
  6843 807-56-9        56    9.000       2486.    
  6844 807-61-47       61    47.00       2499.    
  6845 805-65-357      65    357.0       2511.    
  6846 807-65-357      65    357.0       2507.    
  6847 805-71-362      71    362.0       2516.    
  6848 807-71-362      71    362.0       2516.    
  6849 810-43-4        43    4.000       2471.    
  6850 810-48-362      48    362.0       2465.    
  6851 810-61-47       61    47.00       2472.    
  6852 810-65-357      65    357.0       2509.    
  6853 810-71-362      71    362.0       2533.    
  6854 767-48-335      48    335.0       2562.    
  6855 761-31-335      31    335.0       2494.    
  6856 761-37-320      37    320.0       2488.    
  6857 761-42-355      42    355.0       2468.    
  6858 761-48-342      48    342.0       2479.    
  6859 761-56-18       56    18.00       2481.    
  6860 761-61-54       61    54.00       2480.    
  6861 761-66-33       66    33.00       2511.    
  6862 763-42-355      42    355.0       2484.    
  6863 763-48-342      48    342.0       2488.    
  6864 763-56-18       56    18.00       2488.    
  6865 763-61-56       61    56.00       2488.    
  6866 763-66-33       66    33.00       2514.    
  6867 802-56-9        56    9.000       2469.    
  6868 802-61-47       61    47.00       2460.    
  6869 802-65-357      65    357.0       2496.    
  6870 802-71-362      71    362.0       2515.    
  6871 781-61-54       61    54.00       2482.    
  6872 781-66-33       66    33.00       2514.    
  6873 775-56-27       56    27.00       2485.    
  6874 775-61-54       61    54.00       2484.    
  6875 775-66-33       66    33.00       2515.    
  6876 786-66-33       66    33.00       2504.    
  6877 782-26-336      26    336.0       2502.    
  6878 782-31-335      31    335.0       2489.    
  6879 782-43-4        43    4.000       2455.    
  6880 782-48-362      48    362.0       2463.    
  6881 782-56-9        56    9.000       2471.    
  6882 782-61-47       61    47.00       2456.    
  6883 782-65-357      65    357.0       2505.    
  6884 782-71-362      71    362.0       2523.    
  6885 755-27-12       27    12.00       2512.    
  6886 755-31-348      31    348.0       2492.    
  6887 755-37-26       37    26.00       2467.    
  6888 755-42-357      42    357.0       2472.    
  6889 755-48-342      48    342.0       2464.    
  6890 755-56-18       56    18.00       2477.    
  6891 755-60-320      60    320.0       2475.    
  6892 755-65-298      65    298.0       2509.    
  6893 755-71-365      71    365.0       2524.    
  6894 776-42-354      42    354.0       2621.    
     MULTIPLE LAYERS AND PROPORTIONS :    2, 0.57       3, 0.43
  6895 776-48-335      48    335.0       2625.    
     MULTIPLE LAYERS AND PROPORTIONS :    2, 0.57       3, 0.43
  6896 776-56-17       56    17.00       2621.    
     MULTIPLE LAYERS AND PROPORTIONS :    2, 0.57       3, 0.43
  6897 776-61-53       61    53.00       2616.    
     MULTIPLE LAYERS AND PROPORTIONS :    2, 0.57       3, 0.43
  6898 785-32-62       32    62.00       2582.    
  6899 785-37-32       37    32.00       2565.    
  6900 785-48-334      48    334.0       2578.    
  6901 785-56-19       56    19.00       2574.    
  6902 785-66-33       66    33.00       2559.    
  6903 784-32-62       32    62.00       2579.    
  6904 784-66-33       66    33.00       2552.    
  6905 777-32-6        32    6.000       2568.    
  6906 777-37-32       37    32.00       2563.    
  6907 777-42-355      42    355.0       2560.    
  6908 777-48-334      48    334.0       2557.    
  6909 777-56-18       56    18.00       2552.    
  6910 778-42-355      42    355.0       2583.    
  6911 778-48-334      48    334.0       2582.    
  6912 778-56-18       56    18.00       2572.    
  6913 778-60-321      60    321.0       2563.    
  6914 778-65-299      65    299.0       2553.    
  6915 778-71-365      71    365.0       2542.    
  6916 779-42-355      42    355.0       2598.    
  6917 779-48-334      48    334.0       2600.    
  6918 779-56-18       56    18.00       2594.    
  6919 779-60-321      60    321.0       2587.    
  6920 779-65-299      65    299.0       2574.    
  6921 779-71-365      71    365.0       2564.    
  6922 801-36-310      36    310.0       2530.    
  6923 797-65-356      65    356.0       2527.    
  6924 797-71-362      71    362.0       2516.    
  6925 768-42-355      42    355.0       2572.    
  6926 768-48-335      48    335.0       2565.    
  6927 732-36-316      36    316.0       2606.    
     MULTIPLE LAYERS AND PROPORTIONS :    1, 0.29       2, 0.36       3, 0.35
  6928 765-32-6        32    6.000       2602.    
  6929 765-42-355      42    355.0       2590.    
  6930 765-48-348      48    348.0       2588.    
  6931 765-56-11       56    11.00       2585.    
  6932 765-61-48       61    48.00       2578.    
  6933 765-65-356      65    356.0       2569.    
  6934 765-71-362      71    362.0       2559.    
  6935 718-37-32       37    32.00       2606.    
     MULTIPLE LAYERS AND PROPORTIONS :    2, 0.38       3, 0.62
  6936 718-48-334      48    334.0       2620.    
     MULTIPLE LAYERS AND PROPORTIONS :    2, 0.38       3, 0.62
  6937 718-56-16       56    16.00       2618.    
     MULTIPLE LAYERS AND PROPORTIONS :    2, 0.38       3, 0.62
  6938 718-61-53       61    53.00       2611.    
     MULTIPLE LAYERS AND PROPORTIONS :    2, 0.38       3, 0.62
  6939 718-66-32       66    32.00       2605.    
     MULTIPLE LAYERS AND PROPORTIONS :    2, 0.38       3, 0.62
  6940 718-71-60       71    60.00       2597.    
     MULTIPLE LAYERS AND PROPORTIONS :    2, 0.38       3, 0.62
  6941 728-7-85         7    85.00       2589.    
  6942 728-12-124      12    124.0       2591.    
  6943 728-17-78       17    78.00       2590.    
  6944 728-27-5        27    5.000       2585.    
  6945 728-32-6        32    6.000       2583.    
  6946 728-37-32       37    32.00       2577.    
  6947 728-42-355      42    355.0       2577.    
  6948 728-48-334      48    334.0       2571.    
  6949 728-56-18       56    18.00       2565.    
  6950 681-7-358        7    358.0       2622.    
  6951 681-12-103      12    103.0       2627.    
  6952 681-17-78       17    78.00       2625.    
  6953 681-32-61       32    61.00       2617.    
  6954 681-37-32       37    32.00       2608.    
  6955 662-71-365      71    365.0       2600.    
  6956 616-42-355      42    355.0       2610.    
  6957 616-56-16       56    16.00       2613.    
  6958 825-71-62       71    62.00       2683.    
  6959 608-32-62       32    62.00       2625.    
     MULTIPLE LAYERS AND PROPORTIONS :    2, 0.74       3, 0.26
  6960 608-48-348      48    348.0       2612.    
     MULTIPLE LAYERS AND PROPORTIONS :    2, 0.74       3, 0.26
  6961 608-56-11       56    11.00       2610.    
     MULTIPLE LAYERS AND PROPORTIONS :    2, 0.74       3, 0.26
  6962 608-61-41       61    41.00       2604.    
     MULTIPLE LAYERS AND PROPORTIONS :    2, 0.74       3, 0.26
  6963 608-65-355      65    355.0       2598.    
     MULTIPLE LAYERS AND PROPORTIONS :    2, 0.74       3, 0.26
  6964 608-71-365      71    365.0       2590.    
     MULTIPLE LAYERS AND PROPORTIONS :    2, 0.74       3, 0.26
  6965 559-8-73         8    73.00       2650.    
  6966 559-12-60       12    60.00       2648.    
  6967 559-17-78       17    78.00       2645.    
  6968 559-32-62       32    62.00       2635.    
  6969 559-36-335      36    335.0       2633.    
  6970 806-71-62       71    62.00       2679.    
  6971 771-43-68       43    68.00       2683.    
  6972 764-43-68       43    68.00       2679.    
  6973 764-48-342      48    342.0       2689.    
  6974 764-56-17       56    17.00       2685.    
  6975 764-61-60       61    60.00       2681.    
  6976 764-66-19       66    19.00       2671.    
  6977 764-71-63       71    63.00       2637.    
  6978 731-32-61       32    61.00       2676.    
  6979 731-42-355      42    355.0       2676.    
  6980 730-48-342      48    342.0       2689.    
  6981 730-56-17       56    17.00       2682.    
  6982 730-60-320      60    320.0       2678.    
  6983 730-71-365      71    365.0       2653.    
  6984 725-48-343      48    343.0       2682.    
  6985 725-56-16       56    16.00       2675.    
  6986 725-61-59       61    59.00       2671.    
  6987 725-66-19       66    19.00       2660.    
  6988 725-71-63       71    63.00       2649.    
  6989 683-7-360        7    360.0       2686.    
  6990 683-12-102      12    102.0       2682.    
  6991 683-17-78       17    78.00       2681.    
  6992 683-32-61       32    61.00       2678.    
  6993 683-37-32       37    32.00       2678.    
  6994 683-48-342      48    342.0       2690.    
  6995 528-56-10       56    10.00       2551.    
     MULTIPLE LAYERS AND PROPORTIONS :    1, 0.40       2, 0.27       3, 0.33
  6996 528-61-56       61    56.00       2563.    
     MULTIPLE LAYERS AND PROPORTIONS :    1, 0.40       2, 0.27       3, 0.33
  6997 528-66-34       66    34.00       2585.    
     MULTIPLE LAYERS AND PROPORTIONS :    1, 0.40       2, 0.27       3, 0.33
  6998 532-56-10       56    10.00       2465.    
  6999 532-61-56       61    56.00       2464.    
  7000 523-42-363      42    363.0       2441.    
  7001 523-48-343      48    343.0       2487.    
  7002 523-56-10       56    10.00       2443.    
  7003 523-61-56       61    56.00       2416.    
  7004 506-31-282      31    282.0       2501.    
  7005 506-56-10       56    10.00       2455.    
  7006 506-60-321      60    321.0       2429.    
  7007 516-56-10       56    10.00       2456.    
     MULTIPLE LAYERS AND PROPORTIONS :    2, 0.06       3, 0.94
  7008 516-61-56       61    56.00       2430.    
     MULTIPLE LAYERS AND PROPORTIONS :    2, 0.06       3, 0.94
  7009 507-17-55       17    55.00       2618.    
     MULTIPLE LAYERS AND PROPORTIONS :    1, 0.22       2, 0.56       3, 0.22
  7010 507-22-40       22    40.00       2610.    
     MULTIPLE LAYERS AND PROPORTIONS :    1, 0.22       2, 0.56       3, 0.22
  7011 507-26-299      26    299.0       2574.    
     MULTIPLE LAYERS AND PROPORTIONS :    1, 0.22       2, 0.56       3, 0.22
  7012 507-31-335      31    335.0       2512.    
     MULTIPLE LAYERS AND PROPORTIONS :    2, 0.78       3, 0.22
  7013 507-48-343      48    343.0       2489.    
     MULTIPLE LAYERS AND PROPORTIONS :    2, 0.78       3, 0.22
  7014 507-56-10       56    10.00       2454.    
     MULTIPLE LAYERS AND PROPORTIONS :    2, 0.78       3, 0.22
  7015 496-17-55       17    55.00       2616.    
  7016 496-22-40       22    40.00       2601.    
  7017 496-31-335      31    335.0       2517.    
  7018 492-56-10       56    10.00       2460.    
  7019 492-61-60       61    60.00       2433.    
  7020 492-66-31       66    31.00       2444.    
  7021 466-56-10       56    10.00       2485.    
  7022 466-61-60       61    60.00       2462.    
  7023 466-66-34       66    34.00       2469.    
  7024 462-56-10       56    10.00       2487.    
  7025 462-61-60       61    60.00       2467.    
  7026 462-66-34       66    34.00       2471.    
  7027 476-56-10       56    10.00       2543.    
  7028 476-61-60       61    60.00       2520.    
  7029 465-56-10       56    10.00       2488.    
     MULTIPLE LAYERS AND PROPORTIONS :    2, 0.14       3, 0.86
  7030 465-61-60       61    60.00       2465.    
     MULTIPLE LAYERS AND PROPORTIONS :    2, 0.14       3, 0.86
  7031 465-66-34       66    34.00       2471.    
     MULTIPLE LAYERS AND PROPORTIONS :    2, 0.14       3, 0.86
  7032 460-1-365        1    365.0       2621.    
 Observation within a steady-state time step has been moved to the end of the time step.
  7033 458-38-7        38    7.000       2512.    
  7034 458-48-336      48    336.0       2521.    
  7035 458-56-10       56    10.00       2500.    
  7036 458-61-60       61    60.00       2475.    
  7037 458-66-54       66    54.00       2482.    
  7038 458-71-34       71    34.00       2477.    
  7039 440-38-6        38    6.000       2577.    
     MULTIPLE LAYERS AND PROPORTIONS :    2, 0.80       3, 0.20
  7040 440-42-356      42    356.0       2567.    
     MULTIPLE LAYERS AND PROPORTIONS :    2, 0.80       3, 0.20
  7041 440-48-337      48    337.0       2577.    
     MULTIPLE LAYERS AND PROPORTIONS :    2, 0.80       3, 0.20
  7042 443-1-365        1    365.0       2655.    
 Observation within a steady-state time step has been moved to the end of the time step.
  7043 439-1-358        1    358.0       2668.    
 Observation within a steady-state time step has been moved to the end of the time step.
  7044 439-4-350        4    350.0       2664.    
  7045 449-10-89       10    89.00       2694.    
  7046 418-48-342      48    342.0       2555.    
  7047 418-56-18       56    18.00       2536.    
  7048 415-48-342      48    342.0       2559.    
  7049 415-56-18       56    18.00       2540.    
  7050 421-34-313      34    313.0       2575.    
  7051 421-48-343      48    343.0       2651.    
  7052 421-56-12       56    12.00       2520.    
  7053 421-61-60       61    60.00       2505.    
  7054 417-34-60       34    60.00       2622.    
  7055 412-6-290        6    290.0       2682.    
     MULTIPLE LAYERS AND PROPORTIONS :    1, 0.46       2, 0.54
  7056 412-10-297      10    297.0       2676.    
     MULTIPLE LAYERS AND PROPORTIONS :    1, 0.46       2, 0.54
  7057 412-17-4        17    4.000       2653.    
     MULTIPLE LAYERS AND PROPORTIONS :    1, 0.46       2, 0.54
  7058 412-27-12       27    12.00       2630.    
     MULTIPLE LAYERS AND PROPORTIONS :    1, 0.46       2, 0.54
  7059 412-38-6        38    6.000       2587.    
  7060 412-42-356      42    356.0       2584.    
  7061 412-48-336      48    336.0       2593.    
  7062 411-48-336      48    336.0       2587.    
     MULTIPLE LAYERS AND PROPORTIONS :    2, 0.15       3, 0.85
  7063 411-56-11       56    11.00       2548.    
     MULTIPLE LAYERS AND PROPORTIONS :    2, 0.15       3, 0.85
  7064 411-61-60       61    60.00       2529.    
     MULTIPLE LAYERS AND PROPORTIONS :    2, 0.15       3, 0.85
  7065 411-66-54       66    54.00       2524.    
     MULTIPLE LAYERS AND PROPORTIONS :    2, 0.15       3, 0.85
  7066 411-71-33       71    33.00       2510.    
     MULTIPLE LAYERS AND PROPORTIONS :    2, 0.15       3, 0.85
  7067 405-38-6        38    6.000       2576.    
     MULTIPLE LAYERS AND PROPORTIONS :    2, 0.06       3, 0.94
  7068 405-42-355      42    355.0       2545.    
     MULTIPLE LAYERS AND PROPORTIONS :    2, 0.06       3, 0.94
  7069 405-48-334      48    334.0       2569.    
     MULTIPLE LAYERS AND PROPORTIONS :    2, 0.06       3, 0.94
  7070 405-56-11       56    11.00       2572.    
     MULTIPLE LAYERS AND PROPORTIONS :    2, 0.06       3, 0.94
  7071 405-61-60       61    60.00       2539.    
     MULTIPLE LAYERS AND PROPORTIONS :    2, 0.06       3, 0.94
  7072 405-66-54       66    54.00       2530.    
     MULTIPLE LAYERS AND PROPORTIONS :    2, 0.06       3, 0.94
  7073 405-71-33       71    33.00       2515.    
  7074 396-17-4        17    4.000       2673.    
     MULTIPLE LAYERS AND PROPORTIONS :    1, 0.35       2, 0.44       3, 0.21
  7075 396-27-12       27    12.00       2636.    
     MULTIPLE LAYERS AND PROPORTIONS :    1, 0.35       2, 0.44       3, 0.21
  7076 396-38-6        38    6.000       2595.    
     MULTIPLE LAYERS AND PROPORTIONS :    2, 0.79       3, 0.21
  7077 396-42-355      42    355.0       2564.    
     MULTIPLE LAYERS AND PROPORTIONS :    2, 0.79       3, 0.21
  7078 396-48-336      48    336.0       2581.    
     MULTIPLE LAYERS AND PROPORTIONS :    2, 0.79       3, 0.21
  7079 393-1-358        1    358.0       2703.    
 Observation within a steady-state time step has been moved to the end of the time step.
  7080 398-38-6        38    6.000       2565.    
     MULTIPLE LAYERS AND PROPORTIONS :    2, 0.08       3, 0.92
  7081 398-42-356      42    356.0       2540.    
     MULTIPLE LAYERS AND PROPORTIONS :    2, 0.08       3, 0.92
  7082 387-42-356      42    356.0       2544.    
  7083 387-48-336      48    336.0       2564.    
  7084 387-56-11       56    11.00       2551.    
  7085 387-61-60       61    60.00       2535.    
  7086 387-66-54       66    54.00       2531.    
  7087 387-71-33       71    33.00       2515.    
  7088 386-17-4        17    4.000       2684.    
  7089 386-27-12       27    12.00       2644.    
  7090 386-48-336      48    336.0       2595.    
  7091 381-38-6        38    6.000       2578.    
     MULTIPLE LAYERS AND PROPORTIONS :    1, 0.25       2, 0.75
  7092 381-42-356      42    356.0       2574.    
     MULTIPLE LAYERS AND PROPORTIONS :    1, 0.25       2, 0.75
  7093 381-48-336      48    336.0       2584.    
     MULTIPLE LAYERS AND PROPORTIONS :    1, 0.25       2, 0.75
  7094 361-26-295      26    295.0       2654.    
  7095 361-43-14       43    14.00       2526.    
  7096 361-56-12       56    12.00       2552.    
  7097 361-61-60       61    60.00       2534.    
  7098 361-66-31       66    31.00       2524.    
  7099 365-1-365        1    365.0       2700.    
 Observation within a steady-state time step has been moved to the end of the time step.
  7100 364-42-356      42    356.0       2553.    
  7101 363-1-365        1    365.0       2702.    
 Observation within a steady-state time step has been moved to the end of the time step.
  7102 391-56-12       56    12.00       2551.    
     MULTIPLE LAYERS AND PROPORTIONS :    2, 0.22       3, 0.78
  7103 391-61-60       61    60.00       2535.    
     MULTIPLE LAYERS AND PROPORTIONS :    2, 0.22       3, 0.78
  7104 372-43-14       43    14.00       2535.    
  7105 372-56-12       56    12.00       2543.    
  7106 372-61-60       61    60.00       2535.    
  7107 375-56-19       56    19.00       2559.    
  7108 358-56-19       56    19.00       2556.    
  7109 350-56-19       56    19.00       2568.    
  7110 343-56-19       56    19.00       2566.    
  7111 345-43-6        43    6.000       2552.    
  7112 356-56-12       56    12.00       2558.    
  7113 356-61-60       61    60.00       2544.    
  7114 352-17-4        17    4.000       2694.    
  7115 352-22-51       22    51.00       2686.    
  7116 352-27-14       27    14.00       2662.    
  7117 342-37-342      37    342.0       2587.    
  7118 342-43-14       43    14.00       2567.    
  7119 349-27-13       27    13.00       2659.    
  7120 348-56-11       56    11.00       2621.    
     MULTIPLE LAYERS AND PROPORTIONS :    1, 0.59       2, 0.41
  7121 348-61-54       61    54.00       2610.    
     MULTIPLE LAYERS AND PROPORTIONS :    1, 0.59       2, 0.41
  7122 348-66-35       66    35.00       2604.    
     MULTIPLE LAYERS AND PROPORTIONS :    1, 0.59       2, 0.41
  7123 351-3-56         3    56.00       2741.    
     MULTIPLE LAYERS AND PROPORTIONS :    1, 0.57       2, 0.43
  7124 351-22-46       22    46.00       2687.    
     MULTIPLE LAYERS AND PROPORTIONS :    1, 0.57       2, 0.43
  7125 351-27-62       27    62.00       2672.    
     MULTIPLE LAYERS AND PROPORTIONS :    1, 0.57       2, 0.43
  7126 351-37-342      37    342.0       2622.    
  7127 351-43-14       43    14.00       2621.    
  7128 351-48-337      48    337.0       2632.    
  7129 351-56-11       56    11.00       2632.    
  7130 351-61-54       61    54.00       2623.    
  7131 351-66-35       66    35.00       2620.    
  7132 346-17-4        17    4.000       2697.    
  7133 346-27-14       27    14.00       2658.    
  7134 347-11-304      11    304.0       2719.    
     MULTIPLE LAYERS AND PROPORTIONS :    1, 0.49       2, 0.51
  7135 347-17-59       17    59.00       2705.    
     MULTIPLE LAYERS AND PROPORTIONS :    1, 0.49       2, 0.51
  7136 347-22-46       22    46.00       2680.    
     MULTIPLE LAYERS AND PROPORTIONS :    1, 0.49       2, 0.51
  7137 347-27-14       27    14.00       2664.    
     MULTIPLE LAYERS AND PROPORTIONS :    1, 0.49       2, 0.51
  7138 347-31-335      31    335.0       2647.    
     MULTIPLE LAYERS AND PROPORTIONS :    1, 0.49       2, 0.51
  7139 347-56-11       56    11.00       2625.    
  7140 347-61-54       61    54.00       2617.    
  7141 347-66-35       66    35.00       2608.    
  7142 341-17-4        17    4.000       2701.    
  7143 524-37-354      37    354.0       2605.    
  7144 524-43-4        43    4.000       2599.    
  7145 524-48-335      48    335.0       2592.    
  7146 524-56-9        56    9.000       2592.    
  7147 524-61-47       61    47.00       2583.    
  7148 524-65-357      65    357.0       2580.    
  7149 524-71-362      71    362.0       2584.    
  7150 3418-43-4       43    4.000       2540.    
     MULTIPLE LAYERS AND PROPORTIONS :    1, 0.74       2, 0.26
  7151 3418-48-362     48    362.0       2529.    
     MULTIPLE LAYERS AND PROPORTIONS :    1, 0.74       2, 0.26
  7152 3418-56-9       56    9.000       2554.    
     MULTIPLE LAYERS AND PROPORTIONS :    1, 0.74       2, 0.26
  7153 3418-65-357     65    357.0       2528.    
     MULTIPLE LAYERS AND PROPORTIONS :    1, 0.74       2, 0.26
  7154 3418-71-362     71    362.0       2567.    
     MULTIPLE LAYERS AND PROPORTIONS :    1, 0.74       2, 0.26
  7155 525-35-347      35    347.0       2563.    
  7156 525-56-9        56    9.000       2518.    
  7157 525-71-362      71    362.0       2568.    
  7158 514-31-335      31    335.0       2560.    
     MULTIPLE LAYERS AND PROPORTIONS :    1, 0.30       2, 0.70
  7159 514-36-360      36    360.0       2541.    
     MULTIPLE LAYERS AND PROPORTIONS :    1, 0.30       2, 0.70
  7160 514-43-4        43    4.000       2545.    
     MULTIPLE LAYERS AND PROPORTIONS :    1, 0.30       2, 0.70
  7161 514-48-362      48    362.0       2545.    
     MULTIPLE LAYERS AND PROPORTIONS :    1, 0.30       2, 0.70
  7162 514-56-9        56    9.000       2548.    
     MULTIPLE LAYERS AND PROPORTIONS :    1, 0.30       2, 0.70
  7163 514-61-47       61    47.00       2536.    
     MULTIPLE LAYERS AND PROPORTIONS :    1, 0.30       2, 0.70
  7164 514-65-357      65    357.0       2542.    
     MULTIPLE LAYERS AND PROPORTIONS :    1, 0.30       2, 0.70
  7165 514-71-362      71    362.0       2568.    
     MULTIPLE LAYERS AND PROPORTIONS :    1, 0.30       2, 0.70
  7166 513-32-41       32    41.00       2552.    
     MULTIPLE LAYERS AND PROPORTIONS :    1, 0.39       2, 0.61
  7167 513-39-60       39    60.00       2558.    
     MULTIPLE LAYERS AND PROPORTIONS :    1, 0.39       2, 0.61
  7168 513-43-4        43    4.000       2538.    
     MULTIPLE LAYERS AND PROPORTIONS :    1, 0.39       2, 0.61
  7169 513-48-362      48    362.0       2544.    
     MULTIPLE LAYERS AND PROPORTIONS :    1, 0.39       2, 0.61
  7170 513-56-9        56    9.000       2553.    
     MULTIPLE LAYERS AND PROPORTIONS :    1, 0.39       2, 0.61
  7171 513-61-47       61    47.00       2533.    
     MULTIPLE LAYERS AND PROPORTIONS :    1, 0.39       2, 0.61
  7172 513-65-357      65    357.0       2541.    
     MULTIPLE LAYERS AND PROPORTIONS :    1, 0.39       2, 0.61
  7173 513-71-362      71    362.0       2568.    
     MULTIPLE LAYERS AND PROPORTIONS :    1, 0.39       2, 0.61
  7174 526-11-307      11    307.0       2603.    
  7175 526-17-53       17    53.00       2591.    
  7176 526-22-38       22    38.00       2579.    
  7177 487-17-4        17    4.000       2600.    
     MULTIPLE LAYERS AND PROPORTIONS :    1, 0.87       2, 0.13
  7178 487-27-10       27    10.00       2590.    
     MULTIPLE LAYERS AND PROPORTIONS :    1, 0.87       2, 0.13
  7179 487-38-6        38    6.000       2565.    
     MULTIPLE LAYERS AND PROPORTIONS :    1, 0.87       2, 0.13
  7180 487-42-356      42    356.0       2539.    
     MULTIPLE LAYERS AND PROPORTIONS :    1, 0.87       2, 0.13
  7181 494-42-355      42    355.0       2519.    
     MULTIPLE LAYERS AND PROPORTIONS :    2, 0.16       3, 0.84
  7182 494-48-334      48    334.0       2533.    
     MULTIPLE LAYERS AND PROPORTIONS :    2, 0.16       3, 0.84
  7183 494-56-10       56    10.00       2544.    
     MULTIPLE LAYERS AND PROPORTIONS :    2, 0.16       3, 0.84
  7184 494-61-60       61    60.00       2518.    
     MULTIPLE LAYERS AND PROPORTIONS :    2, 0.16       3, 0.84
  7185 494-66-49       66    49.00       2535.    
     MULTIPLE LAYERS AND PROPORTIONS :    2, 0.16       3, 0.84
  7186 494-71-33       71    33.00       2549.    
     MULTIPLE LAYERS AND PROPORTIONS :    2, 0.16       3, 0.84
  7187 530-38-6        38    6.000       2527.    
     MULTIPLE LAYERS AND PROPORTIONS :    2, 0.22       3, 0.78
  7188 530-48-334      48    334.0       2529.    
     MULTIPLE LAYERS AND PROPORTIONS :    2, 0.22       3, 0.78
  7189 530-56-10       56    10.00       2531.    
     MULTIPLE LAYERS AND PROPORTIONS :    2, 0.22       3, 0.78
  7190 530-61-60       61    60.00       2523.    
     MULTIPLE LAYERS AND PROPORTIONS :    2, 0.22       3, 0.78
  7191 530-66-49       66    49.00       2543.    
     MULTIPLE LAYERS AND PROPORTIONS :    2, 0.22       3, 0.78
  7192 530-71-33       71    33.00       2549.    
     MULTIPLE LAYERS AND PROPORTIONS :    2, 0.22       3, 0.78
  7193 509-38-6        38    6.000       2536.    
     MULTIPLE LAYERS AND PROPORTIONS :    2, 0.43       3, 0.57
  7194 509-42-355      42    355.0       2502.    
     MULTIPLE LAYERS AND PROPORTIONS :    2, 0.43       3, 0.57
  7195 509-48-334      48    334.0       2532.    
     MULTIPLE LAYERS AND PROPORTIONS :    2, 0.43       3, 0.57
  7196 509-56-10       56    10.00       2532.    
     MULTIPLE LAYERS AND PROPORTIONS :    2, 0.43       3, 0.57
  7197 509-61-60       61    60.00       2516.    
     MULTIPLE LAYERS AND PROPORTIONS :    2, 0.43       3, 0.57
  7198 509-66-49       66    49.00       2535.    
     MULTIPLE LAYERS AND PROPORTIONS :    2, 0.43       3, 0.57
  7199 509-71-33       71    33.00       2542.    
     MULTIPLE LAYERS AND PROPORTIONS :    2, 0.43       3, 0.57
  7200 518-17-3        17    3.000       2603.    
  7201 518-27-11       27    11.00       2565.    
  7202 518-42-355      42    355.0       2539.    
  7203 510-1-358        1    358.0       2622.    
 Observation within a steady-state time step has been moved to the end of the time step.
  7204 495-1-358        1    358.0       2628.    
 Observation within a steady-state time step has been moved to the end of the time step.
  7205 491-7-49         7    49.00       2629.    
  7206 490-7-49         7    49.00       2623.    
  7207 490-17-4        17    4.000       2607.    
  7208 490-27-10       27    10.00       2601.    
  7209 481-38-7        38    7.000       2576.    
     MULTIPLE LAYERS AND PROPORTIONS :    1, 0.11       2, 0.22       3, 0.67
  7210 481-42-355      42    355.0       2557.    
     MULTIPLE LAYERS AND PROPORTIONS :    1, 0.11       2, 0.22       3, 0.67
  7211 481-48-334      48    334.0       2565.    
     MULTIPLE LAYERS AND PROPORTIONS :    1, 0.11       2, 0.22       3, 0.67
  7212 481-56-10       56    10.00       2566.    
     MULTIPLE LAYERS AND PROPORTIONS :    1, 0.11       2, 0.22       3, 0.67
  7213 481-61-60       61    60.00       2548.    
     MULTIPLE LAYERS AND PROPORTIONS :    2, 0.33       3, 0.67
  7214 481-66-49       66    49.00       2562.    
     MULTIPLE LAYERS AND PROPORTIONS :    2, 0.33       3, 0.67
  7215 481-71-33       71    33.00       2568.    
     MULTIPLE LAYERS AND PROPORTIONS :    2, 0.33       3, 0.67
  7216 473-38-7        38    7.000       2580.    
     MULTIPLE LAYERS AND PROPORTIONS :    1, 0.92       2, 0.08
  7217 473-42-355      42    355.0       2563.    
     MULTIPLE LAYERS AND PROPORTIONS :    1, 0.92       2, 0.08
  7218 484-38-6        38    6.000       2395.    
  7219 455-22-51       22    51.00       2600.    
     MULTIPLE LAYERS AND PROPORTIONS :    2, 0.08       3, 0.92
  7220 455-27-11       27    11.00       2605.    
     MULTIPLE LAYERS AND PROPORTIONS :    2, 0.08       3, 0.92
  7221 455-38-7        38    7.000       2560.    
     MULTIPLE LAYERS AND PROPORTIONS :    2, 0.08       3, 0.92
  7222 455-42-355      42    355.0       2542.    
     MULTIPLE LAYERS AND PROPORTIONS :    2, 0.08       3, 0.92
  7223 455-48-336      48    336.0       2559.    
     MULTIPLE LAYERS AND PROPORTIONS :    2, 0.08       3, 0.92
  7224 457-1-358        1    358.0       2645.    
 Observation within a steady-state time step has been moved to the end of the time step.
  7225 456-38-6        38    6.000       2573.    
  7226 456-42-356      42    356.0       2540.    
  7227 456-48-334      48    334.0       2557.    
  7228 456-56-10       56    10.00       2556.    
  7229 456-61-60       61    60.00       2533.    
  7230 456-66-54       66    54.00       2542.    
  7231 456-71-33       71    33.00       2543.    
  7232 454-8-253        8    253.0       2652.    
     MULTIPLE LAYERS AND PROPORTIONS :    2, 0.21       3, 0.79
  7233 454-38-6        38    6.000       2572.    
     MULTIPLE LAYERS AND PROPORTIONS :    2, 0.21       3, 0.79
  7234 454-42-355      42    355.0       2549.    
     MULTIPLE LAYERS AND PROPORTIONS :    2, 0.21       3, 0.79
  7235 454-48-334      48    334.0       2559.    
     MULTIPLE LAYERS AND PROPORTIONS :    2, 0.21       3, 0.79
  7236 454-56-10       56    10.00       2567.    
     MULTIPLE LAYERS AND PROPORTIONS :    2, 0.21       3, 0.79
  7237 454-61-60       61    60.00       2542.    
     MULTIPLE LAYERS AND PROPORTIONS :    2, 0.21       3, 0.79
  7238 454-66-49       66    49.00       2551.    
     MULTIPLE LAYERS AND PROPORTIONS :    2, 0.21       3, 0.79
  7239 454-71-33       71    33.00       2555.    
     MULTIPLE LAYERS AND PROPORTIONS :    2, 0.21       3, 0.79
  7240 483-48-334      48    334.0       2555.    
  7241 475-1-365        1    365.0       2620.    
 Observation within a steady-state time step has been moved to the end of the time step.
  7242 472-17-4        17    4.000       2609.    
     MULTIPLE LAYERS AND PROPORTIONS :    1, 0.47       2, 0.53
  7243 472-27-12       27    12.00       2590.    
     MULTIPLE LAYERS AND PROPORTIONS :    1, 0.47       2, 0.53
  7244 472-38-6        38    6.000       2566.    
     MULTIPLE LAYERS AND PROPORTIONS :    1, 0.47       2, 0.53
  7245 472-42-355      42    355.0       2533.    
     MULTIPLE LAYERS AND PROPORTIONS :    1, 0.47       2, 0.53
  7246 472-48-334      48    334.0       2548.    
     MULTIPLE LAYERS AND PROPORTIONS :    1, 0.47       2, 0.53
  7247 464-17-4        17    4.000       2599.    
  7248 464-27-12       27    12.00       2591.    
  7249 464-48-336      48    336.0       2546.    
  7250 442-71-61       71    61.00       2631.    
  7251 438-48-336      48    336.0       2577.    
  7252 436-71-336      71    336.0       2533.    
  7253 422-17-55       17    55.00       2653.    
  7254 422-22-38       22    38.00       2624.    
  7255 422-27-12       27    12.00       2625.    
  7256 422-31-335      31    335.0       2595.    
  7257 422-38-91       38    91.00       2581.    
  7258 426-48-336      48    336.0       2582.    
  7259 426-56-13       56    13.00       2579.    
  7260 426-66-34       66    34.00       2577.    
  7261 430-7-49         7    49.00       2654.    
  7262 430-17-4        17    4.000       2626.    
  7263 430-27-10       27    10.00       2612.    
  7264 432-38-6        38    6.000       2588.    
     MULTIPLE LAYERS AND PROPORTIONS :    2, 0.26       3, 0.74
  7265 432-42-356      42    356.0       2564.    
     MULTIPLE LAYERS AND PROPORTIONS :    2, 0.26       3, 0.74
  7266 432-48-334      48    334.0       2580.    
     MULTIPLE LAYERS AND PROPORTIONS :    2, 0.26       3, 0.74
  7267 432-56-10       56    10.00       2578.    
     MULTIPLE LAYERS AND PROPORTIONS :    2, 0.26       3, 0.74
  7268 432-61-60       61    60.00       2553.    
     MULTIPLE LAYERS AND PROPORTIONS :    2, 0.26       3, 0.74
  7269 432-66-49       66    49.00       2562.    
     MULTIPLE LAYERS AND PROPORTIONS :    2, 0.26       3, 0.74
  7270 432-71-33       71    33.00       2563.    
     MULTIPLE LAYERS AND PROPORTIONS :    2, 0.26       3, 0.74
  7271 452-48-335      48    335.0       2553.    
  7272 452-56-11       56    11.00       2550.    
  7273 431-1-358        1    358.0       2659.    
 Observation within a steady-state time step has been moved to the end of the time step.
  7274 431-6-340        6    340.0       2656.    
  7275 431-11-333      11    333.0       2649.    
  7276 431-36-38       36    38.00       2623.    
  7277 429-42-356      42    356.0       2535.    
     MULTIPLE LAYERS AND PROPORTIONS :    2, 0.07       3, 0.93
  7278 429-48-334      48    334.0       2555.    
     MULTIPLE LAYERS AND PROPORTIONS :    2, 0.07       3, 0.93
  7279 429-56-11       56    11.00       2556.    
     MULTIPLE LAYERS AND PROPORTIONS :    2, 0.07       3, 0.93
  7280 429-61-60       61    60.00       2526.    
     MULTIPLE LAYERS AND PROPORTIONS :    2, 0.07       3, 0.93
  7281 429-66-54       66    54.00       2537.    
     MULTIPLE LAYERS AND PROPORTIONS :    2, 0.07       3, 0.93
  7282 429-71-33       71    33.00       2536.    
     MULTIPLE LAYERS AND PROPORTIONS :    2, 0.07       3, 0.93
  7283 420-17-7        17    7.000       2664.    
     MULTIPLE LAYERS AND PROPORTIONS :    1, 0.38       2, 0.62
  7284 420-27-10       27    10.00       2631.    
     MULTIPLE LAYERS AND PROPORTIONS :    1, 0.38       2, 0.62
  7285 420-48-335      48    335.0       2595.    
  7286 407-38-6        38    6.000       2581.    
     MULTIPLE LAYERS AND PROPORTIONS :    2, 0.85       3, 0.15
  7287 407-42-355      42    355.0       2554.    
     MULTIPLE LAYERS AND PROPORTIONS :    2, 0.85       3, 0.15
  7288 407-48-334      48    334.0       2561.    
     MULTIPLE LAYERS AND PROPORTIONS :    2, 0.85       3, 0.15
  7289 401-38-6        38    6.000       2603.    
  7290 401-42-355      42    355.0       2590.    
  7291 401-48-335      48    335.0       2603.    
  7292 410-42-355      42    355.0       2552.    
  7293 410-48-334      48    334.0       2569.    
  7294 410-56-10       56    10.00       2565.    
  7295 410-61-60       61    60.00       2542.    
  7296 410-66-49       66    49.00       2542.    
  7297 410-71-33       71    33.00       2532.    
  7298 376-31-348      31    348.0       2628.    
  7299 376-37-19       37    19.00       2619.    
  7300 376-43-47       43    47.00       2613.    
  7301 376-48-343      48    343.0       2612.    
  7302 376-56-11       56    11.00       2610.    
  7303 376-60-321      60    321.0       2601.    
  7304 376-65-298      65    298.0       2592.    
  7305 414-71-365      71    365.0       2596.    
  7306 416-34-357      34    357.0       2620.    
     MULTIPLE LAYERS AND PROPORTIONS :    1, 0.85       2, 0.15
  7307 366-17-55       17    55.00       2706.    
  7308 366-22-33       22    33.00       2684.    
  7309 366-27-10       27    10.00       2661.    
  7310 366-33-10       33    10.00       2665.    
  7311 370-17-55       17    55.00       2688.    
     MULTIPLE LAYERS AND PROPORTIONS :    1, 0.90       2, 0.10
  7312 370-22-46       22    46.00       2656.    
     MULTIPLE LAYERS AND PROPORTIONS :    1, 0.90       2, 0.10
  7313 370-31-335      31    335.0       2635.    
     MULTIPLE LAYERS AND PROPORTIONS :    1, 0.90       2, 0.10
  7314 370-37-91       37    91.00       2621.    
     MULTIPLE LAYERS AND PROPORTIONS :    1, 0.90       2, 0.10
  7315 394-27-10       27    10.00       2646.    
  7316 389-42-355      42    355.0       2540.    
  7317 389-48-334      48    334.0       2565.    
  7318 389-56-10       56    10.00       2558.    
  7319 389-61-60       61    60.00       2538.    
  7320 389-66-48       66    48.00       2533.    
  7321 389-71-33       71    33.00       2536.    
  7322 382-48-334      48    334.0       2611.    
     MULTIPLE LAYERS AND PROPORTIONS :    2, 0.91       3, 0.09
  7323 395-17-4        17    4.000       2679.    
     MULTIPLE LAYERS AND PROPORTIONS :    1, 0.75       2, 0.25
  7324 395-27-13       27    13.00       2665.    
     MULTIPLE LAYERS AND PROPORTIONS :    1, 0.75       2, 0.25
  7325 395-38-6        38    6.000       2584.    
  7326 395-42-356      42    356.0       2555.    
  7327 395-48-334      48    334.0       2577.    
  7328 395-56-11       56    11.00       2573.    
  7329 395-61-60       61    60.00       2524.    
  7330 395-66-54       66    54.00       2507.    
  7331 395-71-33       71    33.00       2530.    
  7332 379-42-356      42    356.0       2562.    
  7333 379-48-334      48    334.0       2586.    
  7334 379-56-11       56    11.00       2583.    
  7335 385-7-49         7    49.00       2700.    
  7336 384-7-49         7    49.00       2698.    
  7337 374-1-358        1    358.0       2693.    
 Observation within a steady-state time step has been moved to the end of the time step.
  7338 362-38-6        38    6.000       2600.    
     MULTIPLE LAYERS AND PROPORTIONS :    2, 0.14       3, 0.86
  7339 362-42-355      42    355.0       2577.    
     MULTIPLE LAYERS AND PROPORTIONS :    2, 0.14       3, 0.86
  7340 362-48-334      48    334.0       2593.    
     MULTIPLE LAYERS AND PROPORTIONS :    2, 0.14       3, 0.86
  7341 362-56-10       56    10.00       2592.    
     MULTIPLE LAYERS AND PROPORTIONS :    2, 0.14       3, 0.86
  7342 362-61-60       61    60.00       2572.    
     MULTIPLE LAYERS AND PROPORTIONS :    2, 0.14       3, 0.86
  7343 362-66-48       66    48.00       2562.    
     MULTIPLE LAYERS AND PROPORTIONS :    2, 0.14       3, 0.86
  7344 362-71-33       71    33.00       2575.    
  7345 360-26-313      26    313.0       2647.    
     MULTIPLE LAYERS AND PROPORTIONS :    1, 0.37       2, 0.34       3, 0.29
  7346 360-38-6        38    6.000       2600.    
     MULTIPLE LAYERS AND PROPORTIONS :    1, 0.37       2, 0.34       3, 0.29
  7347 371-38-6        38    6.000       2598.    
     MULTIPLE LAYERS AND PROPORTIONS :    1, 0.46       2, 0.33       3, 0.21
  7348 371-42-355      42    355.0       2579.    
     MULTIPLE LAYERS AND PROPORTIONS :    1, 0.46       2, 0.33       3, 0.21
  7349 355-48-342      48    342.0       2616.    
  7350 355-56-13       56    13.00       2614.    
  7351 355-61-61       61    61.00       2600.    
  7352 355-66-32       66    32.00       2588.    
  7353 353-1-365        1    365.0       2705.    
 Observation within a steady-state time step has been moved to the end of the time step.
  7354 353-8-22         8    22.00       2704.    
  7355 353-11-304      11    304.0       2703.    
  7356 353-61-61       61    61.00       2610.    
  7357 353-66-32       66    32.00       2603.    
  7358 501-27-60       27    60.00       2646.    
  7359 501-37-32       37    32.00       2639.    
  7360 501-43-53       43    53.00       2640.    
  7361 501-48-336      48    336.0       2640.    
  7362 501-56-17       56    17.00       2639.    
  7363 501-60-320      60    320.0       2639.    
  7364 501-65-299      65    299.0       2639.    
  7365 501-71-365      71    365.0       2638.    
  7366 536-61-52       61    52.00       2579.    
  7367 536-66-18       66    18.00       2575.    
  7368 536-71-62       71    62.00       2575.    
  7369 540-43-50       43    50.00       2603.    
  7370 540-56-17       56    17.00       2588.    
  7371 451-37-32       37    32.00       2707.    
  7372 451-43-53       43    53.00       2715.    
  7373 451-48-336      48    336.0       2727.    
  7374 451-56-17       56    17.00       2744.    
  7375 451-61-52       61    52.00       2743.    
  7376 451-71-336      71    336.0       2764.    
  7377 419-71-61       71    61.00       2695.    
  7378 425-71-61       71    61.00       2749.    
  7379 397-48-336      48    336.0       2815.    
  7380 378-71-61       71    61.00       2711.    
  7381 477-7-99         7    99.00       2664.    
  7382 477-11-60       11    60.00       2664.    
  7383 477-17-53       17    53.00       2663.    
  7384 477-22-39       22    39.00       2662.    
  7385 477-32-6        32    6.000       2659.    
  7386 477-37-32       37    32.00       2648.    
  7387 478-48-335      48    335.0       2652.    
  7388 478-56-17       56    17.00       2645.    
  7389 218-42-337      42    337.0       3145.    
  7390 337-37-343      37    343.0       2555.    
  7391 337-43-14       43    14.00       2542.    
  7392 337-56-12       56    12.00       2564.    
  7393 337-61-61       61    61.00       2546.    
  7394 337-66-31       66    31.00       2536.    
  7395 328-56-11       56    11.00       2652.    
     MULTIPLE LAYERS AND PROPORTIONS :    1, 0.86       2, 0.14
  7396 328-61-61       61    61.00       2636.    
     MULTIPLE LAYERS AND PROPORTIONS :    1, 0.86       2, 0.14
  7397 328-66-32       66    32.00       2627.    
     MULTIPLE LAYERS AND PROPORTIONS :    1, 0.86       2, 0.14
  7398 329-1-365        1    365.0       2746.    
 Observation within a steady-state time step has been moved to the end of the time step.
  7399 327-1-365        1    365.0       2754.    
 Observation within a steady-state time step has been moved to the end of the time step.
  7400 326-26-319      26    319.0       2678.    
     MULTIPLE LAYERS AND PROPORTIONS :    1, 0.24       2, 0.12       3, 0.64
  7401 326-31-335      31    335.0       2666.    
     MULTIPLE LAYERS AND PROPORTIONS :    1, 0.24       2, 0.12       3, 0.64
  7402 326-38-32       38    32.00       2654.    
     MULTIPLE LAYERS AND PROPORTIONS :    1, 0.24       2, 0.13       3, 0.63
  7403 326-56-11       56    11.00       2626.    
     MULTIPLE LAYERS AND PROPORTIONS :    1, 0.24       2, 0.12       3, 0.64
  7404 326-61-54       61    54.00       2609.    
     MULTIPLE LAYERS AND PROPORTIONS :    1, 0.24       2, 0.12       3, 0.64
  7405 326-66-32       66    32.00       2598.    
     MULTIPLE LAYERS AND PROPORTIONS :    1, 0.24       2, 0.12       3, 0.64
  7406 321-43-14       43    14.00       2563.    
  7407 321-56-12       56    12.00       2596.    
  7408 322-1-358        1    358.0       2756.    
 Observation within a steady-state time step has been moved to the end of the time step.
  7409 322-6-340        6    340.0       2750.    
  7410 322-11-333      11    333.0       2738.    
  7411 322-16-301      16    301.0       2717.    
  7412 322-22-46       22    46.00       2703.    
  7413 322-27-32       27    32.00       2691.    
  7414 308-34-333      34    333.0       2660.    
     MULTIPLE LAYERS AND PROPORTIONS :    1, 0.11       2, 0.08       3, 0.81
  7415 316-7-283        7    283.0       2748.    
  7416 316-11-333      11    333.0       2738.    
  7417 316-16-301      16    301.0       2734.    
  7418 316-22-46       22    46.00       2699.    
  7419 316-27-11       27    11.00       2692.    
  7420 316-31-335      31    335.0       2674.    
  7421 316-38-32       38    32.00       2663.    
  7422 316-48-337      48    337.0       2639.    
  7423 316-56-11       56    11.00       2632.    
  7424 316-60-321      60    321.0       2616.    
  7425 316-65-300      65    300.0       2582.    
  7426 310-1-365        1    365.0       2757.    
 Observation within a steady-state time step has been moved to the end of the time step.
  7427 310-27-49       27    49.00       2692.    
  7428 310-56-11       56    11.00       2649.    
  7429 310-61-54       61    54.00       2633.    
  7430 310-66-32       66    32.00       2621.    
  7431 324-1-365        1    365.0       2740.    
 Observation within a steady-state time step has been moved to the end of the time step.
  7432 307-56-11       56    11.00       2680.    
  7433 335-1-365        1    365.0       2755.    
 Observation within a steady-state time step has been moved to the end of the time step.
  7434 333-56-9        56    9.000       2601.    
     MULTIPLE LAYERS AND PROPORTIONS :    2, 0.30       3, 0.70
  7435 323-56-11       56    11.00       2640.    
  7436 323-61-61       61    61.00       2610.    
  7437 311-17-5        17    5.000       2717.    
     MULTIPLE LAYERS AND PROPORTIONS :    1, 0.57       2, 0.27       3, 0.16
  7438 311-27-14       27    14.00       2682.    
     MULTIPLE LAYERS AND PROPORTIONS :    1, 0.57       2, 0.27       3, 0.16
  7439 314-56-25       56    25.00       2590.    
  7440 314-61-62       61    62.00       2580.    
  7441 318-48-343      48    343.0       2595.    
  7442 302-42-348      42    348.0       2592.    
  7443 301-22-62       22    62.00       2697.    
  7444 301-27-6        27    6.000       2674.    
  7445 301-38-32       38    32.00       2639.    
  7446 295-22-62       22    62.00       2740.    
  7447 295-38-5        38    5.000       2669.    
  7448 295-56-24       56    24.00       2659.    
  7449 295-66-32       66    32.00       2645.    
  7450 281-38-5        38    5.000       2639.    
  7451 281-42-348      42    348.0       2619.    
  7452 270-22-62       22    62.00       2711.    
  7453 270-38-32       38    32.00       2656.    
  7454 271-38-5        38    5.000       2645.    
  7455 271-42-348      42    348.0       2625.    
  7456 271-48-337      48    337.0       2650.    
  7457 271-56-10       56    10.00       2638.    
  7458 271-61-61       61    61.00       2623.    
  7459 271-66-61       66    61.00       2620.    
  7460 290-56-25       56    25.00       2624.    
     MULTIPLE LAYERS AND PROPORTIONS :    2, 0.33       3, 0.67
  7461 290-61-62       61    62.00       2610.    
     MULTIPLE LAYERS AND PROPORTIONS :    2, 0.33       3, 0.67
  7462 280-17-4        17    4.000       2729.    
  7463 280-27-14       27    14.00       2698.    
  7464 278-7-274        7    274.0       2772.    
     MULTIPLE LAYERS AND PROPORTIONS :    1, 0.77       2, 0.23
  7465 274-7-274        7    274.0       2767.    
     MULTIPLE LAYERS AND PROPORTIONS :    1, 0.84       2, 0.16
  7466 274-38-7        38    7.000       2670.    
     MULTIPLE LAYERS AND PROPORTIONS :    1, 0.84       2, 0.16
  7467 274-42-355      42    355.0       2647.    
     MULTIPLE LAYERS AND PROPORTIONS :    1, 0.84       2, 0.16
  7468 274-48-335      48    335.0       2671.    
     MULTIPLE LAYERS AND PROPORTIONS :    1, 0.84       2, 0.16
  7469 274-56-11       56    11.00       2668.    
     MULTIPLE LAYERS AND PROPORTIONS :    1, 0.84       2, 0.16
  7470 279-17-5        17    5.000       2745.    
     MULTIPLE LAYERS AND PROPORTIONS :    1, 0.65       2, 0.35
  7471 279-42-355      42    355.0       2665.    
     MULTIPLE LAYERS AND PROPORTIONS :    1, 0.65       2, 0.35
  7472 282-42-355      42    355.0       2655.    
     MULTIPLE LAYERS AND PROPORTIONS :    2, 0.19       3, 0.81
  7473 282-48-335      48    335.0       2666.    
     MULTIPLE LAYERS AND PROPORTIONS :    2, 0.19       3, 0.81
  7474 282-56-11       56    11.00       2674.    
     MULTIPLE LAYERS AND PROPORTIONS :    2, 0.19       3, 0.81
  7475 282-61-60       61    60.00       2656.    
     MULTIPLE LAYERS AND PROPORTIONS :    2, 0.19       3, 0.81
  7476 282-66-48       66    48.00       2645.    
     MULTIPLE LAYERS AND PROPORTIONS :    2, 0.19       3, 0.81
  7477 265-42-355      42    355.0       2668.    
     MULTIPLE LAYERS AND PROPORTIONS :    2, 0.13       3, 0.87
  7478 265-48-335      48    335.0       2690.    
     MULTIPLE LAYERS AND PROPORTIONS :    2, 0.13       3, 0.87
  7479 265-56-11       56    11.00       2688.    
     MULTIPLE LAYERS AND PROPORTIONS :    2, 0.13       3, 0.87
  7480 265-61-60       61    60.00       2671.    
     MULTIPLE LAYERS AND PROPORTIONS :    2, 0.13       3, 0.87
  7481 265-66-48       66    48.00       2660.    
     MULTIPLE LAYERS AND PROPORTIONS :    2, 0.13       3, 0.87
  7482 265-71-34       71    34.00       2645.    
     MULTIPLE LAYERS AND PROPORTIONS :    2, 0.13       3, 0.87
  7483 264-38-7        38    7.000       2690.    
  7484 264-42-355      42    355.0       2677.    
  7485 264-48-335      48    335.0       2699.    
  7486 264-56-11       56    11.00       2697.    
  7487 264-61-60       61    60.00       2681.    
  7488 264-66-48       66    48.00       2672.    
  7489 264-71-34       71    34.00       2654.    
  7490 268-1-365        1    365.0       2783.    
 Observation within a steady-state time step has been moved to the end of the time step.
  7491 268-38-7        38    7.000       2681.    
  7492 268-43-47       43    47.00       2665.    
  7493 268-48-335      48    335.0       2686.    
  7494 250-7-274        7    274.0       2785.    
     MULTIPLE LAYERS AND PROPORTIONS :    2, 0.02       3, 0.98
  7495 250-17-5        17    5.000       2760.    
     MULTIPLE LAYERS AND PROPORTIONS :    2, 0.02       3, 0.98
  7496 250-38-7        38    7.000       2695.    
     MULTIPLE LAYERS AND PROPORTIONS :    2, 0.02       3, 0.98
  7497 250-42-355      42    355.0       2675.    
     MULTIPLE LAYERS AND PROPORTIONS :    2, 0.02       3, 0.98
  7498 250-56-11       56    11.00       2696.    
     MULTIPLE LAYERS AND PROPORTIONS :    2, 0.02       3, 0.98
  7499 250-61-60       61    60.00       2679.    
     MULTIPLE LAYERS AND PROPORTIONS :    2, 0.02       3, 0.98
  7500 250-66-48       66    48.00       2666.    
     MULTIPLE LAYERS AND PROPORTIONS :    2, 0.02       3, 0.98
  7501 250-71-34       71    34.00       2638.    
     MULTIPLE LAYERS AND PROPORTIONS :    2, 0.02       3, 0.98
  7502 252-48-335      48    335.0       2702.    
     MULTIPLE LAYERS AND PROPORTIONS :    1, 0.52       2, 0.48
  7503 256-42-355      42    355.0       2668.    
     MULTIPLE LAYERS AND PROPORTIONS :    2, 0.11       3, 0.89
  7504 256-48-335      48    335.0       2696.    
     MULTIPLE LAYERS AND PROPORTIONS :    2, 0.11       3, 0.89
  7505 256-56-11       56    11.00       2694.    
     MULTIPLE LAYERS AND PROPORTIONS :    2, 0.11       3, 0.89
  7506 256-61-60       61    60.00       2678.    
     MULTIPLE LAYERS AND PROPORTIONS :    2, 0.11       3, 0.89
  7507 256-66-48       66    48.00       2664.    
     MULTIPLE LAYERS AND PROPORTIONS :    2, 0.11       3, 0.89
  7508 256-71-34       71    34.00       2646.    
     MULTIPLE LAYERS AND PROPORTIONS :    2, 0.11       3, 0.89
  7509 261-17-5        17    5.000       2756.    
     MULTIPLE LAYERS AND PROPORTIONS :    1, 0.40       2, 0.42       3, 0.18
  7510 261-17-64       17    64.00       2755.    
     MULTIPLE LAYERS AND PROPORTIONS :    1, 0.40       2, 0.42       3, 0.18
  7511 261-22-41       22    41.00       2740.    
     MULTIPLE LAYERS AND PROPORTIONS :    1, 0.40       2, 0.42       3, 0.18
  7512 262-48-338      48    338.0       2688.    
  7513 262-56-9        56    9.000       2670.    
  7514 262-61-62       61    62.00       2657.    
  7515 247-1-365        1    365.0       2801.    
 Observation within a steady-state time step has been moved to the end of the time step.
  7516 247-7-291        7    291.0       2788.    
  7517 247-27-11       27    11.00       2742.    
  7518 266-36-1        36    1.000       2669.    
  7519 260-48-338      48    338.0       2665.    
  7520 259-56-9        56    9.000       2660.    
  7521 259-61-62       61    62.00       2645.    
  7522 259-66-47       66    47.00       2639.    
  7523 259-71-35       71    35.00       2623.    
  7524 269-38-4        38    4.000       2752.    
  7525 269-42-337      42    337.0       2753.    
  7526 269-48-337      48    337.0       2751.    
  7527 269-56-10       56    10.00       2789.    
  7528 269-61-61       61    61.00       2739.    
  7529 269-66-61       66    61.00       2740.    
  7530 257-56-10       56    10.00       2794.    
  7531 257-61-61       61    61.00       2727.    
  7532 257-66-61       66    61.00       2727.    
  7533 254-38-4        38    4.000       2773.    
  7534 254-42-337      42    337.0       2764.    
  7535 253-48-337      48    337.0       2672.    
     MULTIPLE LAYERS AND PROPORTIONS :    2, 0.03       3, 0.97
  7536 253-56-10       56    10.00       2666.    
     MULTIPLE LAYERS AND PROPORTIONS :    2, 0.03       3, 0.97
  7537 253-61-61       61    61.00       2650.    
     MULTIPLE LAYERS AND PROPORTIONS :    2, 0.03       3, 0.97
  7538 253-66-61       66    61.00       2644.    
     MULTIPLE LAYERS AND PROPORTIONS :    2, 0.03       3, 0.97
  7539 248-38-5        38    5.000       3160.    
  7540 248-42-337      42    337.0       3166.    
  7541 248-48-337      48    337.0       3163.    
  7542 241-48-337      48    337.0       2702.    
  7543 241-56-10       56    10.00       2707.    
  7544 241-61-61       61    61.00       2686.    
  7545 241-66-61       66    61.00       2675.    
  7546 229-48-337      48    337.0       2738.    
  7547 229-56-11       56    11.00       2746.    
  7548 242-38-4        38    4.000       2809.    
  7549 242-42-337      42    337.0       2781.    
  7550 243-56-10       56    10.00       2838.    
  7551 238-56-10       56    10.00       2830.    
  7552 235-56-10       56    10.00       2846.    
  7553 228-38-5        38    5.000       2831.    
  7554 228-42-348      42    348.0       2788.    
  7555 228-48-337      48    337.0       2776.    
  7556 230-48-337      48    337.0       2783.    
     MULTIPLE LAYERS AND PROPORTIONS :    2, 0.19       3, 0.81
  7557 230-56-10       56    10.00       2815.    
     MULTIPLE LAYERS AND PROPORTIONS :    2, 0.19       3, 0.81
  7558 232-31-335      31    335.0       2744.    
     MULTIPLE LAYERS AND PROPORTIONS :    1, 0.11       2, 0.21       3, 0.68
  7559 232-37-361      37    361.0       2729.    
     MULTIPLE LAYERS AND PROPORTIONS :    1, 0.11       2, 0.21       3, 0.68
  7560 232-48-337      48    337.0       2731.    
     MULTIPLE LAYERS AND PROPORTIONS :    2, 0.32       3, 0.68
  7561 232-56-9        56    9.000       2734.    
     MULTIPLE LAYERS AND PROPORTIONS :    2, 0.32       3, 0.68
  7562 232-61-62       61    62.00       2717.    
     MULTIPLE LAYERS AND PROPORTIONS :    2, 0.32       3, 0.68
  7563 232-66-47       66    47.00       2700.    
     MULTIPLE LAYERS AND PROPORTIONS :    2, 0.32       3, 0.68
  7564 232-71-35       71    35.00       2670.    
     MULTIPLE LAYERS AND PROPORTIONS :    2, 0.32       3, 0.68
  7565 237-17-5        17    5.000       2766.    
  7566 237-27-11       27    11.00       2752.    
  7567 237-37-357      37    357.0       2710.    
  7568 237-42-355      42    355.0       2690.    
  7569 237-48-335      48    335.0       2716.    
  7570 237-56-11       56    11.00       2716.    
  7571 237-61-60       61    60.00       2699.    
  7572 237-66-48       66    48.00       2684.    
  7573 237-71-34       71    34.00       2664.    
  7574 239-1-365        1    365.0       2805.    
 Observation within a steady-state time step has been moved to the end of the time step.
     MULTIPLE LAYERS AND PROPORTIONS :    1, 0.69       2, 0.31
  7575 239-42-355      42    355.0       2688.    
     MULTIPLE LAYERS AND PROPORTIONS :    1, 0.69       2, 0.31
  7576 240-22-1        22    1.000       2744.    
     MULTIPLE LAYERS AND PROPORTIONS :    1, 0.17       2, 0.28       3, 0.55
  7577 240-38-7        38    7.000       2714.    
     MULTIPLE LAYERS AND PROPORTIONS :    1, 0.17       2, 0.28       3, 0.55
  7578 240-48-335      48    335.0       2719.    
     MULTIPLE LAYERS AND PROPORTIONS :    1, 0.17       2, 0.28       3, 0.55
  7579 240-56-10       56    10.00       2718.    
     MULTIPLE LAYERS AND PROPORTIONS :    1, 0.17       2, 0.28       3, 0.55
  7580 240-66-48       66    48.00       2686.    
     MULTIPLE LAYERS AND PROPORTIONS :    1, 0.17       2, 0.28       3, 0.55
  7581 240-71-34       71    34.00       2661.    
     MULTIPLE LAYERS AND PROPORTIONS :    1, 0.17       2, 0.28       3, 0.55
  7582 231-48-335      48    335.0       2732.    
  7583 231-56-10       56    10.00       2732.    
  7584 233-17-5        17    5.000       2781.    
     MULTIPLE LAYERS AND PROPORTIONS :    1, 0.51       2, 0.44       3, 0.05
  7585 233-38-7        38    7.000       2712.    
     MULTIPLE LAYERS AND PROPORTIONS :    1, 0.51       2, 0.44       3, 0.05
  7586 233-42-355      42    355.0       2695.    
     MULTIPLE LAYERS AND PROPORTIONS :    1, 0.51       2, 0.44       3, 0.05
  7587 234-42-355      42    355.0       2694.    
     MULTIPLE LAYERS AND PROPORTIONS :    1, 0.14       2, 0.11       3, 0.75
  7588 234-48-335      48    335.0       2714.    
     MULTIPLE LAYERS AND PROPORTIONS :    1, 0.14       2, 0.11       3, 0.75
  7589 234-56-10       56    10.00       2718.    
     MULTIPLE LAYERS AND PROPORTIONS :    1, 0.14       2, 0.11       3, 0.75
  7590 234-60-322      60    322.0       2701.    
     MULTIPLE LAYERS AND PROPORTIONS :    1, 0.14       2, 0.11       3, 0.75
  7591 234-66-48       66    48.00       2688.    
     MULTIPLE LAYERS AND PROPORTIONS :    1, 0.15       2, 0.10       3, 0.75
  7592 234-71-34       71    34.00       2667.    
     MULTIPLE LAYERS AND PROPORTIONS :    1, 0.15       2, 0.10       3, 0.75
  7593 213-1-310        1    310.0       2835.    
 Observation within a steady-state time step has been moved to the end of the time step.
  7594 213-6-310        6    310.0       2829.    
  7595 213-27-11       27    11.00       2792.    
  7596 213-42-355      42    355.0       2739.    
  7597 216-7-291        7    291.0       2818.    
     MULTIPLE LAYERS AND PROPORTIONS :    1, 0.65       2, 0.35
  7598 216-22-32       22    32.00       2787.    
     MULTIPLE LAYERS AND PROPORTIONS :    1, 0.65       2, 0.35
  7599 216-27-11       27    11.00       2793.    
     MULTIPLE LAYERS AND PROPORTIONS :    1, 0.65       2, 0.35
  7600 216-38-7        38    7.000       2738.    
     MULTIPLE LAYERS AND PROPORTIONS :    1, 0.65       2, 0.35
  7601 216-42-355      42    355.0       2732.    
     MULTIPLE LAYERS AND PROPORTIONS :    1, 0.65       2, 0.35
  7602 210-1-365        1    365.0       2843.    
 Observation within a steady-state time step has been moved to the end of the time step.
  7603 210-38-7        38    7.000       2742.    
  7604 210-42-355      42    355.0       2745.    
  7605 210-48-335      48    335.0       2770.    
  7606 210-56-11       56    11.00       2775.    
  7607 189-17-6        17    6.000       2827.    
     MULTIPLE LAYERS AND PROPORTIONS :    1, 0.75       2, 0.25
  7608 189-22-54       22    54.00       2812.    
     MULTIPLE LAYERS AND PROPORTIONS :    1, 0.75       2, 0.25
  7609 189-27-11       27    11.00       2814.    
     MULTIPLE LAYERS AND PROPORTIONS :    1, 0.75       2, 0.25
  7610 189-38-7        38    7.000       2772.    
     MULTIPLE LAYERS AND PROPORTIONS :    1, 0.75       2, 0.25
  7611 189-42-355      42    355.0       2762.    
     MULTIPLE LAYERS AND PROPORTIONS :    1, 0.75       2, 0.25
  7612 189-48-335      48    335.0       2793.    
     MULTIPLE LAYERS AND PROPORTIONS :    1, 0.75       2, 0.25
  7613 189-56-9        56    9.000       2797.    
     MULTIPLE LAYERS AND PROPORTIONS :    1, 0.75       2, 0.25
  7614 189-61-60       61    60.00       2779.    
     MULTIPLE LAYERS AND PROPORTIONS :    1, 0.75       2, 0.25
  7615 189-66-48       66    48.00       2761.    
     MULTIPLE LAYERS AND PROPORTIONS :    1, 0.75       2, 0.25
  7616 189-71-34       71    34.00       2738.    
     MULTIPLE LAYERS AND PROPORTIONS :    1, 0.75       2, 0.25
  7617 200-38-7        38    7.000       2760.    
     MULTIPLE LAYERS AND PROPORTIONS :    2, 0.18       3, 0.82
  7618 200-42-356      42    356.0       2747.    
     MULTIPLE LAYERS AND PROPORTIONS :    2, 0.18       3, 0.82
  7619 200-48-335      48    335.0       2776.    
     MULTIPLE LAYERS AND PROPORTIONS :    2, 0.18       3, 0.82
  7620 200-56-9        56    9.000       2778.    
     MULTIPLE LAYERS AND PROPORTIONS :    2, 0.18       3, 0.82
  7621 200-61-60       61    60.00       2756.    
     MULTIPLE LAYERS AND PROPORTIONS :    2, 0.18       3, 0.82
  7622 200-66-48       66    48.00       2745.    
     MULTIPLE LAYERS AND PROPORTIONS :    2, 0.18       3, 0.82
  7623 201-38-7        38    7.000       2774.    
     MULTIPLE LAYERS AND PROPORTIONS :    2, 0.10       3, 0.90
  7624 201-42-356      42    356.0       2759.    
     MULTIPLE LAYERS AND PROPORTIONS :    2, 0.08       3, 0.92
  7625 201-48-335      48    335.0       2782.    
     MULTIPLE LAYERS AND PROPORTIONS :    2, 0.08       3, 0.92
  7626 201-56-11       56    11.00       2786.    
     MULTIPLE LAYERS AND PROPORTIONS :    2, 0.08       3, 0.92
  7627 201-61-60       61    60.00       2769.    
     MULTIPLE LAYERS AND PROPORTIONS :    2, 0.08       3, 0.92
  7628 201-66-48       66    48.00       2753.    
     MULTIPLE LAYERS AND PROPORTIONS :    2, 0.08       3, 0.92
  7629 201-71-34       71    34.00       2730.    
     MULTIPLE LAYERS AND PROPORTIONS :    2, 0.08       3, 0.92
  7630 199-17-5        17    5.000       2814.    
  7631 199-22-54       22    54.00       2800.    
  7632 199-27-11       27    11.00       2801.    
  7633 199-38-7        38    7.000       2764.    
  7634 199-42-356      42    356.0       2749.    
  7635 199-48-335      48    335.0       2776.    
  7636 217-38-5        38    5.000       2864.    
  7637 217-42-348      42    348.0       2813.    
  7638 220-38-5        38    5.000       2851.    
     MULTIPLE LAYERS AND PROPORTIONS :    2, 0.13       3, 0.87
  7639 220-42-348      42    348.0       2800.    
     MULTIPLE LAYERS AND PROPORTIONS :    2, 0.13       3, 0.87
  7640 220-56-10       56    10.00       2804.    
     MULTIPLE LAYERS AND PROPORTIONS :    2, 0.13       3, 0.87
  7641 220-61-61       61    61.00       2795.    
     MULTIPLE LAYERS AND PROPORTIONS :    2, 0.13       3, 0.87
  7642 220-66-61       66    61.00       2776.    
     MULTIPLE LAYERS AND PROPORTIONS :    2, 0.13       3, 0.87
  7643 204-38-5        38    5.000       2852.    
  7644 204-42-348      42    348.0       2799.    
  7645 202-38-5        38    5.000       2854.    
     MULTIPLE LAYERS AND PROPORTIONS :    2, 0.17       3, 0.83
  7646 202-42-348      42    348.0       2802.    
     MULTIPLE LAYERS AND PROPORTIONS :    2, 0.17       3, 0.83
  7647 198-39-190      39    190.0       2868.    
     MULTIPLE LAYERS AND PROPORTIONS :    2, 0.25       3, 0.75
  7648 194-39-138      39    138.0       2833.    
     MULTIPLE LAYERS AND PROPORTIONS :    2, 0.39       3, 0.61
  7649 190-56-10       56    10.00       2810.    
  7650 190-61-61       61    61.00       2802.    
  7651 192-38-5        38    5.000       2853.    
  7652 192-42-337      42    337.0       2813.    
  7653 191-39-212      39    212.0       2856.    
     MULTIPLE LAYERS AND PROPORTIONS :    2, 0.28       3, 0.72
  7654 193-38-5        38    5.000       2848.    
     MULTIPLE LAYERS AND PROPORTIONS :    2, 0.09       3, 0.91
  7655 193-42-348      42    348.0       2815.    
     MULTIPLE LAYERS AND PROPORTIONS :    2, 0.09       3, 0.91
  7656 188-56-10       56    10.00       2883.    
  7657 188-61-61       61    61.00       2874.    
  7658 188-66-61       66    61.00       2864.    
  7659 187-56-10       56    10.00       2840.    
  7660 187-61-61       61    61.00       2840.    
  7661 187-66-62       66    62.00       2815.    
  7662 179-48-337      48    337.0       2866.    
  7663 14-1-365         1    365.0       2884.    
 Observation within a steady-state time step has been moved to the end of the time step.
  7664 185-1-365        1    365.0       2853.    
 Observation within a steady-state time step has been moved to the end of the time step.
  7665 185-10-60       10    60.00       2822.    
  7666 185-38-7        38    7.000       2754.    
  7667 185-42-355      42    355.0       2750.    
  7668 181-38-7        38    7.000       2780.    
     MULTIPLE LAYERS AND PROPORTIONS :    2, 0.26       3, 0.74
  7669 181-48-335      48    335.0       2809.    
     MULTIPLE LAYERS AND PROPORTIONS :    2, 0.26       3, 0.74
  7670 181-56-11       56    11.00       2813.    
     MULTIPLE LAYERS AND PROPORTIONS :    2, 0.26       3, 0.74
  7671 181-61-60       61    60.00       2798.    
     MULTIPLE LAYERS AND PROPORTIONS :    2, 0.26       3, 0.74
  7672 181-66-48       66    48.00       2777.    
     MULTIPLE LAYERS AND PROPORTIONS :    2, 0.26       3, 0.74
  7673 181-71-34       71    34.00       2755.    
     MULTIPLE LAYERS AND PROPORTIONS :    2, 0.26       3, 0.74
  7674 186-48-335      48    335.0       2805.    
  7675 183-48-335      48    335.0       2811.    
  7676 182-42-355      42    355.0       2777.    
     MULTIPLE LAYERS AND PROPORTIONS :    2, 0.27       3, 0.73
  7677 182-48-335      48    335.0       2810.    
     MULTIPLE LAYERS AND PROPORTIONS :    2, 0.27       3, 0.73
  7678 182-56-9        56    9.000       2809.    
     MULTIPLE LAYERS AND PROPORTIONS :    2, 0.27       3, 0.73
  7679 182-61-60       61    60.00       2795.    
     MULTIPLE LAYERS AND PROPORTIONS :    2, 0.27       3, 0.73
  7680 182-66-48       66    48.00       2776.    
     MULTIPLE LAYERS AND PROPORTIONS :    2, 0.27       3, 0.73
  7681 182-71-34       71    34.00       2755.    
     MULTIPLE LAYERS AND PROPORTIONS :    2, 0.27       3, 0.73
  7682 180-48-335      48    335.0       2822.    
  7683 184-12-80       12    80.00       2841.    
  7684 184-17-60       17    60.00       2837.    
  7685 184-22-62       22    62.00       2827.    
  7686 184-27-6        27    6.000       2812.    
  7687 184-31-335      31    335.0       2811.    
  7688 184-37-32       37    32.00       2792.    
  7689 184-42-299      42    299.0       2779.    
  7690 184-48-337      48    337.0       2809.    
  7691 184-56-12       56    12.00       2811.    
  7692 184-66-55       66    55.00       2790.    
  7693 305-56-11       56    11.00       2722.    
  7694 305-61-61       61    61.00       2678.    
  7695 305-66-32       66    32.00       2682.    
  7696 325-37-344      37    344.0       2646.    
  7697 325-43-14       43    14.00       2634.    
  7698 325-48-342      48    342.0       2649.    
  7699 325-56-12       56    12.00       2656.    
  7700 325-61-61       61    61.00       2621.    
  7701 325-66-31       66    31.00       2611.    
  7702 292-61-61       61    61.00       2675.    
  7703 296-26-321      26    321.0       2728.    
  7704 296-31-335      31    335.0       2715.    
  7705 296-37-344      37    344.0       2709.    
  7706 296-43-14       43    14.00       2705.    
  7707 296-48-342      48    342.0       2701.    
  7708 296-56-11       56    11.00       2697.    
  7709 296-60-321      60    321.0       2692.    
  7710 296-65-300      65    300.0       2686.    
     MULTIPLE LAYERS AND PROPORTIONS :    1, 0.20       2, 0.80
  7711 297-17-4        17    4.000       2731.    
     MULTIPLE LAYERS AND PROPORTIONS :    1, 0.20       2, 0.80
  7712 297-22-54       22    54.00       2722.    
     MULTIPLE LAYERS AND PROPORTIONS :    1, 0.20       2, 0.80
  7713 297-27-11       27    11.00       2713.    
     MULTIPLE LAYERS AND PROPORTIONS :    1, 0.20       2, 0.80
  7714 297-56-12       56    12.00       2681.    
  7715 297-61-61       61    61.00       2671.    
  7716 297-66-32       66    32.00       2665.    
  7717 272-33-177      33    177.0       2743.    
  7718 245-48-342      48    342.0       2722.    
  7719 245-56-12       56    12.00       2719.    
  7720 221-33-346      33    346.0       2759.    
     MULTIPLE LAYERS AND PROPORTIONS :    1, 0.25       2, 0.75
  7721 222-48-343      48    343.0       2744.    
  7722 222-56-9        56    9.000       2758.    
  7723 222-61-60       61    60.00       2739.    
  7724 222-66-54       66    54.00       2735.    
  7725 222-71-34       71    34.00       2721.    
  7726 223-48-343      48    343.0       2746.    
     MULTIPLE LAYERS AND PROPORTIONS :    2, 0.87       3, 0.13
  7727 223-56-9        56    9.000       2750.    
     MULTIPLE LAYERS AND PROPORTIONS :    2, 0.87       3, 0.13
  7728 223-61-60       61    60.00       2738.    
     MULTIPLE LAYERS AND PROPORTIONS :    2, 0.87       3, 0.13
  7729 223-71-35       71    35.00       2720.    
     MULTIPLE LAYERS AND PROPORTIONS :    2, 0.87       3, 0.13
  7730 219-71-365      71    365.0       2723.    
  7731 102-43-8        43    8.000       2972.    
  7732 102-48-344      48    344.0       2995.    
  7733 92-71-40        71    40.00       2989.    
  7734 177-17-6        17    6.000       2858.    
  7735 177-38-7        38    7.000       2790.    
  7736 177-42-355      42    355.0       2803.    
  7737 177-48-335      48    335.0       2861.    
  7738 169-38-4        38    4.000       2773.    
     MULTIPLE LAYERS AND PROPORTIONS :    1, 0.24       2, 0.32       3, 0.44
  7739 169-42-334      42    334.0       2779.    
     MULTIPLE LAYERS AND PROPORTIONS :    1, 0.24       2, 0.32       3, 0.44
  7740 169-56-11       56    11.00       2818.    
     MULTIPLE LAYERS AND PROPORTIONS :    1, 0.24       2, 0.32       3, 0.44
  7741 168-1-365        1    365.0       2887.    
 Observation within a steady-state time step has been moved to the end of the time step.
     MULTIPLE LAYERS AND PROPORTIONS :    1, 0.82       2, 0.18
  7742 170-38-7        38    7.000       2782.    
  7743 170-42-355      42    355.0       2793.    
     MULTIPLE LAYERS AND PROPORTIONS :    1, 0.07       2, 0.10       3, 0.83
  7744 170-48-335      48    335.0       2831.    
     MULTIPLE LAYERS AND PROPORTIONS :    1, 0.07       2, 0.10       3, 0.83
  7745 170-56-9        56    9.000       2827.    
     MULTIPLE LAYERS AND PROPORTIONS :    1, 0.07       2, 0.10       3, 0.83
  7746 170-61-60       61    60.00       2821.    
     MULTIPLE LAYERS AND PROPORTIONS :    1, 0.07       2, 0.10       3, 0.83
  7747 170-66-48       66    48.00       2798.    
     MULTIPLE LAYERS AND PROPORTIONS :    1, 0.07       2, 0.10       3, 0.83
  7748 170-71-34       71    34.00       2780.    
  7749 176-1-280        1    280.0       2880.    
 Observation within a steady-state time step has been moved to the end of the time step.
     MULTIPLE LAYERS AND PROPORTIONS :    1, 0.77       2, 0.23
  7750 176-6-340        6    340.0       2875.    
     MULTIPLE LAYERS AND PROPORTIONS :    1, 0.77       2, 0.23
  7751 176-11-333      11    333.0       2858.    
     MULTIPLE LAYERS AND PROPORTIONS :    1, 0.77       2, 0.23
  7752 176-16-332      16    332.0       2862.    
     MULTIPLE LAYERS AND PROPORTIONS :    1, 0.77       2, 0.23
  7753 176-38-7        38    7.000       2791.    
     MULTIPLE LAYERS AND PROPORTIONS :    1, 0.77       2, 0.23
  7754 172-12-80       12    80.00       2883.    
  7755 172-17-60       17    60.00       2875.    
  7756 172-22-62       22    62.00       2868.    
  7757 172-27-6        27    6.000       2860.    
  7758 172-31-344      31    344.0       2859.    
  7759 172-36-335      36    335.0       2848.    
  7760 172-48-335      48    335.0       2848.    
  7761 172-56-11       56    11.00       2853.    
  7762 172-61-59       61    59.00       2852.    
  7763 171-43-47       43    47.00       2829.    
  7764 171-48-335      48    335.0       2851.    
  7765 171-56-11       56    11.00       2853.    
  7766 171-60-322      60    322.0       2853.    
  7767 171-65-298      65    298.0       2837.    
  7768 171-71-13       71    13.00       2807.    
  7769 164-33-152      33    152.0       2848.    
     MULTIPLE LAYERS AND PROPORTIONS :    1, 0.12       2, 0.88
  7770 167-48-335      48    335.0       2864.    
  7771 167-56-11       56    11.00       2866.    
  7772 166-61-56       61    56.00       2871.    
  7773 166-66-53       66    53.00       2858.    
  7774 166-71-35       71    35.00       2829.    
  7775 178-48-336      48    336.0       2871.    
  7776 178-56-11       56    11.00       2816.    
  7777 174-48-336      48    336.0       2870.    
  7778 161-48-336      48    336.0       2887.    
  7779 161-56-11       56    11.00       2895.    
  7780 161-61-56       61    56.00       2887.    
  7781 161-66-54       66    54.00       2878.    
  7782 161-71-41       71    41.00       2860.    
  7783 153-48-335      48    335.0       2915.    
  7784 163-48-336      48    336.0       2902.    
  7785 163-56-11       56    11.00       2903.    
  7786 163-61-59       61    59.00       2896.    
  7787 163-66-54       66    54.00       2886.    
  7788 163-71-41       71    41.00       2865.    
  7789 156-48-336      48    336.0       2913.    
  7790 156-56-11       56    11.00       2916.    
  7791 157-1-358        1    358.0       2927.    
 Observation within a steady-state time step has been moved to the end of the time step.
  7792 157-22-54       22    54.00       2887.    
  7793 157-27-11       27    11.00       2885.    
  7794 157-31-348      31    348.0       2874.    
  7795 157-37-22       37    22.00       2831.    
  7796 157-43-47       43    47.00       2842.    
  7797 157-48-335      48    335.0       2888.    
  7798 157-56-9        56    9.000       2903.    
  7799 157-60-322      60    322.0       2872.    
  7800 157-65-298      65    298.0       2859.    
  7801 157-71-365      71    365.0       2824.    
  7802 154-42-341      42    341.0       2833.    
  7803 159-38-4        38    4.000       2783.    
     MULTIPLE LAYERS AND PROPORTIONS :    1, 0.15       2, 0.36       3, 0.49
  7804 159-56-11       56    11.00       2840.    
     MULTIPLE LAYERS AND PROPORTIONS :    1, 0.15       2, 0.36       3, 0.49
  7805 147-38-4        38    4.000       2820.    
     MULTIPLE LAYERS AND PROPORTIONS :    1, 0.22       2, 0.26       3, 0.52
  7806 147-42-334      42    334.0       2820.    
     MULTIPLE LAYERS AND PROPORTIONS :    1, 0.22       2, 0.26       3, 0.52
  7807 147-56-11       56    11.00       2889.    
     MULTIPLE LAYERS AND PROPORTIONS :    1, 0.22       2, 0.26       3, 0.52
  7808 149-1-280        1    280.0       2945.    
 Observation within a steady-state time step has been moved to the end of the time step.
  7809 150-48-335      48    335.0       2923.    
  7810 150-56-9        56    9.000       2926.    
  7811 137-48-335      48    335.0       2944.    
  7812 137-56-9        56    9.000       2949.    
  7813 137-61-56       61    56.00       2937.    
  7814 137-66-53       66    53.00       2922.    
  7815 136-38-4        38    4.000       2860.    
     MULTIPLE LAYERS AND PROPORTIONS :    2, 0.22       3, 0.78
  7816 136-42-341      42    341.0       2880.    
     MULTIPLE LAYERS AND PROPORTIONS :    2, 0.22       3, 0.78
  7817 136-56-11       56    11.00       2894.    
     MULTIPLE LAYERS AND PROPORTIONS :    2, 0.22       3, 0.78
  7818 152-48-336      48    336.0       2949.    
  7819 129-17-5        17    5.000       2953.    
  7820 129-27-11       27    11.00       2944.    
  7821 123-42-348      42    348.0       2909.    
     MULTIPLE LAYERS AND PROPORTIONS :    2, 0.26       3, 0.74
  7822 128-42-348      42    348.0       2921.    
  7823 128-56-11       56    11.00       2970.    
  7824 133-12-362      12    362.0       2936.    
  7825 133-17-61       17    61.00       2933.    
  7826 133-27-6        27    6.000       2925.    
  7827 133-31-335      31    335.0       2913.    
  7828 133-38-4        38    4.000       2866.    
  7829 133-42-341      42    341.0       2885.    
  7830 133-48-335      48    335.0       2937.    
  7831 133-56-9        56    9.000       2956.    
  7832 133-71-365      71    365.0       2871.    
  7833 127-1-365        1    365.0       2959.    
 Observation within a steady-state time step has been moved to the end of the time step.
  7834 127-17-1        17    1.000       2959.    
  7835 130-42-341      42    341.0       2915.    
     MULTIPLE LAYERS AND PROPORTIONS :    2, 0.39       3, 0.61
  7836 130-48-335      48    335.0       2949.    
     MULTIPLE LAYERS AND PROPORTIONS :    2, 0.39       3, 0.61
  7837 130-56-9        56    9.000       2964.    
     MULTIPLE LAYERS AND PROPORTIONS :    2, 0.39       3, 0.61
  7838 126-27-11       27    11.00       2934.    
  7839 135-48-336      48    336.0       2897.    
  7840 135-56-9        56    9.000       2902.    
  7841 122-48-336      48    336.0       2920.    
  7842 120-12-310      12    310.0       2972.    
  7843 120-17-5        17    5.000       2968.    
  7844 120-27-6        27    6.000       2963.    
  7845 120-31-335      31    335.0       2964.    
  7846 120-37-32       37    32.00       2931.    
  7847 120-42-341      42    341.0       2947.    
  7848 120-48-336      48    336.0       2976.    
  7849 120-56-10       56    10.00       2983.    
  7850 120-61-59       61    59.00       2968.    
  7851 120-65-292      65    292.0       2963.    
  7852 120-71-365      71    365.0       2938.    
  7853 118-38-4        38    4.000       2903.    
     MULTIPLE LAYERS AND PROPORTIONS :    2, 0.23       3, 0.77
  7854 118-42-341      42    341.0       2933.    
     MULTIPLE LAYERS AND PROPORTIONS :    2, 0.22       3, 0.78
  7855 118-48-349      48    349.0       2960.    
     MULTIPLE LAYERS AND PROPORTIONS :    2, 0.22       3, 0.78
  7856 118-56-10       56    10.00       2964.    
     MULTIPLE LAYERS AND PROPORTIONS :    2, 0.22       3, 0.78
  7857 107-27-69       27    69.00       2989.    
  7858 114-48-336      48    336.0       2957.    
     MULTIPLE LAYERS AND PROPORTIONS :    1, 0.29       2, 0.43       3, 0.28
  7859 114-56-10       56    10.00       2966.    
     MULTIPLE LAYERS AND PROPORTIONS :    1, 0.29       2, 0.43       3, 0.28
  7860 112-43-8        43    8.000       2956.    
  7861 112-48-335      48    335.0       2982.    
  7862 112-56-9        56    9.000       2988.    
  7863 112-61-52       61    52.00       2975.    
  7864 112-66-45       66    45.00       2967.    
  7865 112-71-13       71    13.00       2956.    
  7866 104-60-299      60    299.0       2981.    
  7867 104-65-292      65    292.0       2974.    
  7868 100-22-61       22    61.00       2977.    
  7869 101-61-53       61    53.00       2981.    
  7870 97-22-54        22    54.00       2975.    
  7871 97-27-10        27    10.00       2963.    
  7872 98-43-8         43    8.000       2975.    
  7873 98-48-348       48    348.0       3003.    
  7874 98-56-10        56    10.00       3007.    
  7875 98-61-52        61    52.00       2997.    
  7876 98-66-45        66    45.00       2989.    
  7877 105-43-69       43    69.00       2982.    
  7878 105-48-348      48    348.0       2993.    
  7879 105-56-10       56    10.00       3005.    
  7880 105-61-55       61    55.00       2989.    
  7881 105-66-45       66    45.00       2983.    
  7882 99-5-1           5    1.000       2994.    
  7883 106-56-10       56    10.00       2952.    
  7884 106-61-59       61    59.00       2947.    
  7885 106-66-45       66    45.00       2941.    
  7886 106-71-40       71    40.00       2928.    
  7887 95-71-40        71    40.00       2970.    
  7888 3393-25-338     25    338.0       1492.    
  7889 3312-25-338     25    338.0       1558.    
  7890 3288-25-341     25    341.0       1610.    
  7891 3282-25-341     25    341.0       1611.    
  7892 3259-25-341     25    341.0       1649.    
     MULTIPLE LAYERS AND PROPORTIONS :    2, 0.69       3, 0.31
  7893 3222-25-229     25    229.0       1675.    
  7894 3213-25-337     25    337.0       1690.    
  7895 3199-25-339     25    339.0       1687.    
     MULTIPLE LAYERS AND PROPORTIONS :    2, 0.82       3, 0.18
  7896 3175-25-339     25    339.0       1683.    
  7897 3170-25-342     25    342.0       1701.    
  7898 3200-25-336     25    336.0       1748.    
     MULTIPLE LAYERS AND PROPORTIONS :    2, 0.43       3, 0.57
  7899 3154-25-336     25    336.0       1687.    
  7900 3138-25-336     25    336.0       1690.    
  7901 3046-25-344     25    344.0       1693.    
  7902 3036-25-344     25    344.0       1702.    
  7903 3038-25-339     25    339.0       1713.    
     MULTIPLE LAYERS AND PROPORTIONS :    1, 0.19       2, 0.77       3, 0.04
  7904 2684-25-3       25    3.000       1753.    
  7905 2919-25-351     25    351.0       1795.    
  7906 2719-25-113     25    113.0       2216.    
  7907 1933-25-180     25    180.0       2246.    
     MULTIPLE LAYERS AND PROPORTIONS :    1, 0.55       2, 0.45
  7908 1387-25-60      25    60.00       2343.    
     MULTIPLE LAYERS AND PROPORTIONS :    2, 0.46       3, 0.54
  7909 1427-25-27      25    27.00       2341.    
  7910 1661-25-60      25    60.00       2359.    
  7911 1390-25-365     25    365.0       2362.    
     MULTIPLE LAYERS AND PROPORTIONS :    1, 0.42       2, 0.58
  7912 1904-25-317     25    317.0       2511.    
  7913 1379-25-91      25    91.00       2552.    
  7914 1796-25-321     25    321.0       2637.    
  7915 1753-25-321     25    321.0       2623.    
  7916 1705-25-328     25    328.0       2647.    
  7917 1064-25-125     25    125.0       2385.    
     MULTIPLE LAYERS AND PROPORTIONS :    2, 0.31       3, 0.69
  7918 831-25-335      25    335.0       2495.    
     MULTIPLE LAYERS AND PROPORTIONS :    1, 0.45       2, 0.55
  7919 1066-25-335     25    335.0       2783.    
  7920 723-25-363      25    363.0       2420.    
  7921 568-25-307      25    307.0       2578.    
     MULTIPLE LAYERS AND PROPORTIONS :    1, 0.68       2, 0.32
  7922 544-25-309      25    309.0       2569.    
  7923 780-25-329      25    329.0       2673.    
  7924 526-25-307      25    307.0       2566.    
  7925 370-25-308      25    308.0       2652.    
     MULTIPLE LAYERS AND PROPORTIONS :    1, 0.90       2, 0.10
  7926 265-25-7        25    7.000       2718.    
     MULTIPLE LAYERS AND PROPORTIONS :    2, 0.13       3, 0.87
  7927 266-25-43       25    43.00       2692.    
  7928 232-25-314      25    314.0       2758.    
     MULTIPLE LAYERS AND PROPORTIONS :    1, 0.11       2, 0.21       3, 0.68
  7929 100-25-316      25    316.0       2977.    
  7930 3205-26-8       26    8.000       1660.    
  7931 3174-26-7       26    7.000       1673.    
  7932 3163-26-13      26    13.00       1681.    
  7933 3100-26-12      26    12.00       1686.    
     MULTIPLE LAYERS AND PROPORTIONS :    2, 0.76       3, 0.24
  7934 3097-26-7       26    7.000       1674.    
  7935 3096-26-12      26    12.00       1693.    
  7936 3053-26-11      26    11.00       1688.    
  7937 3065-26-12      26    12.00       1701.    
     MULTIPLE LAYERS AND PROPORTIONS :    2, 0.27       3, 0.73
  7938 3033-26-11      26    11.00       1699.    
     MULTIPLE LAYERS AND PROPORTIONS :    2, 0.22       3, 0.78
  7939 2989-26-12      26    12.00       1709.    
  7940 3083-26-152     26    152.0       1700.    
     MULTIPLE LAYERS AND PROPORTIONS :    2, 0.60       3, 0.40
  7941 3040-26-13      26    13.00       1692.    
  7942 2997-26-123     26    123.0       2239.    
  7943 3016-26-123     26    123.0       2282.    
  7944 2953-26-14      26    14.00       1718.    
  7945 2963-26-14      26    14.00       1715.    
  7946 2968-26-13      26    13.00       1779.    
     MULTIPLE LAYERS AND PROPORTIONS :    2, 0.99       3, 0.01
  7947 2906-26-13      26    13.00       1755.    
     MULTIPLE LAYERS AND PROPORTIONS :    2, 0.77       3, 0.23
  7948 2905-26-13      26    13.00       1726.    
     MULTIPLE LAYERS AND PROPORTIONS :    1, 0.55       2, 0.45
  7949 2874-26-14      26    14.00       1767.    
  7950 2780-26-13      26    13.00       1747.    
  7951 2779-26-13      26    13.00       1763.    
     MULTIPLE LAYERS AND PROPORTIONS :    2, 0.37       3, 0.63
  7952 2787-26-14      26    14.00       1788.    
  7953 2790-26-14      26    14.00       1786.    
     MULTIPLE LAYERS AND PROPORTIONS :    2, 0.52       3, 0.48
  7954 2772-26-13      26    13.00       1750.    
  7955 2639-26-13      26    13.00       1780.    
     MULTIPLE LAYERS AND PROPORTIONS :    2, 0.39       3, 0.61
  7956 2974-26-15      26    15.00       1784.    
  7957 2937-26-14      26    14.00       1785.    
     MULTIPLE LAYERS AND PROPORTIONS :    2, 0.86       3, 0.14
  7958 2885-26-14      26    14.00       1764.    
  7959 2867-26-14      26    14.00       1706.    
  7960 2837-26-14      26    14.00       1710.    
  7961 2748-26-15      26    15.00       1763.    
  7962 2694-26-15      26    15.00       1833.    
  7963 2933-26-15      26    15.00       1711.    
  7964 2851-26-14      26    14.00       1742.    
  7965 2711-26-15      26    15.00       1803.    
  7966 2928-26-18      26    18.00       1795.    
  7967 2811-26-14      26    14.00       1815.    
  7968 2808-26-18      26    18.00       1802.    
  7969 2766-26-47      26    47.00       2059.    
  7970 2789-26-18      26    18.00       1813.    
  7971 2696-26-18      26    18.00       2033.    
  7972 2977-26-123     26    123.0       2364.    
     MULTIPLE LAYERS AND PROPORTIONS :    2, 0.89       3, 0.11
  7973 2914-26-120     26    120.0       2139.    
  7974 2930-26-123     26    123.0       2338.    
  7975 2898-26-120     26    120.0       2134.    
  7976 2841-26-120     26    120.0       2191.    
  7977 2774-26-120     26    120.0       2200.    
  7978 2762-26-26      26    26.00       2162.    
  7979 2733-26-1       26    1.000       2092.    
  7980 2742-26-26      26    26.00       2135.    
  7981 2670-26-18      26    18.00       2129.    
  7982 2660-26-120     26    120.0       2188.    
  7983 2931-26-22      26    22.00       2410.    
  7984 2595-26-12      26    12.00       1779.    
     MULTIPLE LAYERS AND PROPORTIONS :    2, 0.19       3, 0.81
  7985 2596-26-1       26    1.000       1776.    
     MULTIPLE LAYERS AND PROPORTIONS :    2, 0.12       3, 0.88
  7986 2589-26-11      26    11.00       1776.    
  7987 2588-26-1       26    1.000       1774.    
  7988 2564-26-12      26    12.00       1779.    
  7989 2529-26-12      26    12.00       1789.    
     MULTIPLE LAYERS AND PROPORTIONS :    2, 0.05       3, 0.95
  7990 2449-26-11      26    11.00       1828.    
  7991 2492-26-13      26    13.00       1813.    
     MULTIPLE LAYERS AND PROPORTIONS :    2, 0.26       3, 0.74
  7992 2452-26-12      26    12.00       1795.    
     MULTIPLE LAYERS AND PROPORTIONS :    2, 0.09       3, 0.91
  7993 2303-26-1       26    1.000       1795.    
     MULTIPLE LAYERS AND PROPORTIONS :    2, 0.07       3, 0.93
  7994 2296-26-12      26    12.00       1805.    
     MULTIPLE LAYERS AND PROPORTIONS :    2, 0.10       3, 0.90
  7995 2301-26-14      26    14.00       1821.    
     MULTIPLE LAYERS AND PROPORTIONS :    2, 0.27       3, 0.73
  7996 2300-26-11      26    11.00       1839.    
     MULTIPLE LAYERS AND PROPORTIONS :    2, 0.44       3, 0.56
  7997 2220-26-11      26    11.00       1844.    
     MULTIPLE LAYERS AND PROPORTIONS :    2, 0.13       3, 0.87
  7998 2089-26-1       26    1.000       1825.    
     MULTIPLE LAYERS AND PROPORTIONS :    2, 0.14       3, 0.86
  7999 2088-26-12      26    12.00       1831.    
     MULTIPLE LAYERS AND PROPORTIONS :    2, 0.17       3, 0.83
  8000 2448-26-11      26    11.00       1837.    
  8001 2099-26-1       26    1.000       1851.    
     MULTIPLE LAYERS AND PROPORTIONS :    2, 0.43       3, 0.57
  8002 1922-26-1       26    1.000       1870.    
     MULTIPLE LAYERS AND PROPORTIONS :    2, 0.39       3, 0.61
  8003 1983-26-11      26    11.00       1883.    
  8004 1930-26-14      26    14.00       1888.    
  8005 2649-26-27      26    27.00       2098.    
     MULTIPLE LAYERS AND PROPORTIONS :    1, 0.55       2, 0.45
  8006 2505-26-32      26    32.00       2152.    
  8007 2464-26-29      26    29.00       2151.    
  8008 2388-26-32      26    32.00       2173.    
  8009 2412-26-20      26    20.00       2232.    
     MULTIPLE LAYERS AND PROPORTIONS :    1, 0.97       2, 0.03
  8010 2289-26-29      26    29.00       2181.    
  8011 2236-26-19      26    19.00       2195.    
  8012 2183-26-29      26    29.00       2163.    
  8013 2215-26-104     26    104.0       2435.    
  8014 2162-26-102     26    102.0       2323.    
  8015 2130-26-69      26    69.00       2258.    
  8016 1990-26-67      26    67.00       2274.    
  8017 2103-26-67      26    67.00       2293.    
     MULTIPLE LAYERS AND PROPORTIONS :    1, 0.64       2, 0.36
  8018 2055-26-102     26    102.0       2292.    
  8019 1997-26-183     26    183.0       2331.    
  8020 2339-26-104     26    104.0       2473.    
  8021 2100-26-117     26    117.0       2518.    
  8022 2010-26-75      26    75.00       2379.    
  8023 1428-26-1       26    1.000       1959.    
  8024 1383-26-8       26    8.000       2004.    
  8025 1819-26-1       26    1.000       1912.    
     MULTIPLE LAYERS AND PROPORTIONS :    2, 0.69       3, 0.31
  8026 1748-26-11      26    11.00       1915.    
     MULTIPLE LAYERS AND PROPORTIONS :    2, 0.51       3, 0.49
  8027 1702-26-11      26    11.00       1892.    
     MULTIPLE LAYERS AND PROPORTIONS :    2, 0.37       3, 0.63
  8028 1710-26-1       26    1.000       1884.    
     MULTIPLE LAYERS AND PROPORTIONS :    2, 0.18       3, 0.82
  8029 1663-26-1       26    1.000       1894.    
     MULTIPLE LAYERS AND PROPORTIONS :    2, 0.25       3, 0.75
  8030 1612-26-11      26    11.00       1921.    
  8031 1407-26-11      26    11.00       1992.    
     MULTIPLE LAYERS AND PROPORTIONS :    2, 0.83       3, 0.17
  8032 1364-26-11      26    11.00       1996.    
  8033 1266-26-8       26    8.000       2015.    
     MULTIPLE LAYERS AND PROPORTIONS :    2, 0.57       3, 0.43
  8034 1336-26-11      26    11.00       2008.    
     MULTIPLE LAYERS AND PROPORTIONS :    2, 0.82       3, 0.18
  8035 1337-26-11      26    11.00       2002.    
     MULTIPLE LAYERS AND PROPORTIONS :    2, 0.78       3, 0.22
  8036 1264-26-1       26    1.000       2006.    
     MULTIPLE LAYERS AND PROPORTIONS :    2, 0.41       3, 0.59
  8037 1849-26-40      26    40.00       2254.    
     MULTIPLE LAYERS AND PROPORTIONS :    1, 0.73       2, 0.27
  8038 1832-26-40      26    40.00       2225.    
  8039 1690-26-33      26    33.00       2246.    
  8040 1691-26-1       26    1.000       2240.    
  8041 1417-26-60      26    60.00       2352.    
  8042 1386-26-34      26    34.00       2348.    
     MULTIPLE LAYERS AND PROPORTIONS :    1, 0.37       2, 0.49       3, 0.14
  8043 1329-26-35      26    35.00       2350.    
  8044 1278-26-33      26    33.00       2365.    
  8045 1879-26-69      26    69.00       2338.    
     MULTIPLE LAYERS AND PROPORTIONS :    1, 0.20       2, 0.80
  8046 1811-26-68      26    68.00       2332.    
     MULTIPLE LAYERS AND PROPORTIONS :    1, 0.33       2, 0.67
  8047 1837-26-60      26    60.00       2337.    
  8048 1907-26-68      26    68.00       2328.    
  8049 1888-26-68      26    68.00       2311.    
  8050 1779-26-67      26    67.00       2313.    
  8051 1619-26-67      26    67.00       2340.    
     MULTIPLE LAYERS AND PROPORTIONS :    1, 0.59       2, 0.41
  8052 1723-26-60      26    60.00       2306.    
  8053 1694-26-68      26    68.00       2322.    
     MULTIPLE LAYERS AND PROPORTIONS :    1, 0.79       2, 0.21
  8054 1658-26-67      26    67.00       2325.    
     MULTIPLE LAYERS AND PROPORTIONS :    1, 0.83       2, 0.17
  8055 1655-26-69      26    69.00       2339.    
     MULTIPLE LAYERS AND PROPORTIONS :    1, 0.98       2, 0.02
  8056 1614-26-69      26    69.00       2341.    
  8057 1596-26-69      26    69.00       2343.    
  8058 1630-26-69      26    69.00       2351.    
  8059 1552-26-74      26    74.00       2343.    
  8060 1467-26-76      26    76.00       2341.    
  8061 1470-26-74      26    74.00       2328.    
  8062 1455-26-81      26    81.00       2338.    
  8063 1443-26-81      26    81.00       2342.    
  8064 1465-26-74      26    74.00       2337.    
  8065 1440-26-74      26    74.00       2343.    
     MULTIPLE LAYERS AND PROPORTIONS :    1, 0.14       2, 0.86
  8066 1474-26-75      26    75.00       2350.    
  8067 1453-26-71      26    71.00       2351.    
  8068 1488-26-70      26    70.00       2350.    
  8069 1502-26-71      26    71.00       2352.    
     MULTIPLE LAYERS AND PROPORTIONS :    1, 0.40       2, 0.60
  8070 1477-26-60      26    60.00       2354.    
  8071 1458-26-153     26    153.0       2351.    
  8072 1429-26-71      26    71.00       2371.    
     MULTIPLE LAYERS AND PROPORTIONS :    1, 0.19       2, 0.81
  8073 1397-26-71      26    71.00       2361.    
     MULTIPLE LAYERS AND PROPORTIONS :    1, 0.60       2, 0.40
  8074 1416-26-76      26    76.00       2364.    
     MULTIPLE LAYERS AND PROPORTIONS :    1, 0.72       2, 0.28
  8075 1312-26-88      26    88.00       2410.    
  8076 1359-26-82      26    82.00       2387.    
     MULTIPLE LAYERS AND PROPORTIONS :    1, 0.54       2, 0.46
  8077 1333-26-82      26    82.00       2391.    
     MULTIPLE LAYERS AND PROPORTIONS :    1, 0.51       2, 0.49
  8078 1295-26-84      26    84.00       2407.    
  8079 1892-26-193     26    193.0       2511.    
     MULTIPLE LAYERS AND PROPORTIONS :    1, 0.30       2, 0.70
  8080 1940-26-109     26    109.0       2485.    
     MULTIPLE LAYERS AND PROPORTIONS :    1, 0.24       2, 0.76
  8081 1659-26-71      26    71.00       2364.    
     MULTIPLE LAYERS AND PROPORTIONS :    1, 0.55       2, 0.45
  8082 1671-26-60      26    60.00       2365.    
     MULTIPLE LAYERS AND PROPORTIONS :    1, 0.72       2, 0.28
  8083 1627-26-70      26    70.00       2374.    
  8084 1677-26-83      26    83.00       2490.    
  8085 1602-26-83      26    83.00       2397.    
  8086 1604-26-83      26    83.00       2484.    
  8087 1669-26-109     26    109.0       2529.    
  8088 1622-26-109     26    109.0       2528.    
  8089 1553-26-88      26    88.00       2529.    
  8090 1563-26-88      26    88.00       2526.    
  8091 1586-26-84      26    84.00       2483.    
  8092 1507-26-75      26    75.00       2376.    
  8093 1495-26-60      26    60.00       2377.    
     MULTIPLE LAYERS AND PROPORTIONS :    1, 0.18       2, 0.82
  8094 1484-26-75      26    75.00       2370.    
  8095 1489-26-88      26    88.00       2488.    
  8096 1464-26-88      26    88.00       2529.    
  8097 1414-26-95      26    95.00       2547.    
  8098 1395-26-88      26    88.00       2457.    
  8099 1377-26-83      26    83.00       2461.    
  8100 1375-26-88      26    88.00       2509.    
  8101 1396-26-70      26    70.00       2427.    
  8102 1415-26-84      26    84.00       2403.    
  8103 1300-26-213     26    213.0       2560.    
  8104 1276-26-95      26    95.00       2557.    
  8105 1354-26-95      26    95.00       2713.    
  8106 1358-26-95      26    95.00       2714.    
  8107 846-26-13       26    13.00       2358.    
  8108 833-26-13       26    13.00       2354.    
     MULTIPLE LAYERS AND PROPORTIONS :    2, 0.17       3, 0.83
  8109 827-26-13       26    13.00       2353.    
     MULTIPLE LAYERS AND PROPORTIONS :    2, 0.60       3, 0.40
  8110 845-26-13       26    13.00       2306.    
  8111 1105-26-118     26    118.0       2038.    
  8112 1120-26-13      26    13.00       2034.    
  8113 1088-26-91      26    91.00       2090.    
  8114 809-26-13       26    13.00       2198.    
  8115 1235-26-36      26    36.00       2364.    
     MULTIPLE LAYERS AND PROPORTIONS :    2, 0.35       3, 0.65
  8116 1239-26-33      26    33.00       2364.    
     MULTIPLE LAYERS AND PROPORTIONS :    1, 0.16       2, 0.58       3, 0.26
  8117 1227-26-33      26    33.00       2367.    
     MULTIPLE LAYERS AND PROPORTIONS :    2, 0.25       3, 0.75
  8118 1219-26-36      26    36.00       2358.    
     MULTIPLE LAYERS AND PROPORTIONS :    1, 0.29       2, 0.09       3, 0.62
  8119 1168-26-35      26    35.00       2377.    
  8120 1140-26-35      26    35.00       2383.    
     MULTIPLE LAYERS AND PROPORTIONS :    1, 0.46       2, 0.52       3, 0.02
  8121 1160-26-36      26    36.00       2371.    
     MULTIPLE LAYERS AND PROPORTIONS :    1, 0.79       2, 0.21
  8122 1121-26-36      26    36.00       2378.    
     MULTIPLE LAYERS AND PROPORTIONS :    1, 0.34       2, 0.21       3, 0.45
  8123 1080-26-36      26    36.00       2443.    
  8124 1048-26-36      26    36.00       2445.    
     MULTIPLE LAYERS AND PROPORTIONS :    1, 0.20       2, 0.12       3, 0.68
  8125 1075-26-36      26    36.00       2428.    
     MULTIPLE LAYERS AND PROPORTIONS :    1, 0.35       2, 0.04       3, 0.61
  8126 1016-26-36      26    36.00       2387.    
  8127 1011-26-36      26    36.00       2378.    
     MULTIPLE LAYERS AND PROPORTIONS :    1, 0.14       2, 0.14       3, 0.72
  8128 1083-26-35      26    35.00       2391.    
  8129 997-26-244      26    244.0       2404.    
  8130 910-26-166      26    166.0       2463.    
     MULTIPLE LAYERS AND PROPORTIONS :    2, 0.05       3, 0.95
  8131 1212-26-64      26    64.00       2374.    
  8132 1131-26-349     26    349.0       2441.    
  8133 1188-26-60      26    60.00       2481.    
  8134 1076-26-341     26    341.0       2520.    
     MULTIPLE LAYERS AND PROPORTIONS :    1, 0.30       2, 0.70
  8135 1000-26-18      26    18.00       2522.    
  8136 1095-26-18      26    18.00       2462.    
  8137 1035-26-61      26    61.00       2488.    
  8138 1037-26-60      26    60.00       2477.    
  8139 878-26-60       26    60.00       2496.    
     MULTIPLE LAYERS AND PROPORTIONS :    1, 0.34       2, 0.66
  8140 1250-26-84      26    84.00       2437.    
     MULTIPLE LAYERS AND PROPORTIONS :    1, 0.42       2, 0.58
  8141 1251-26-84      26    84.00       2433.    
     MULTIPLE LAYERS AND PROPORTIONS :    1, 0.24       2, 0.76
  8142 1195-26-81      26    81.00       2500.    
     MULTIPLE LAYERS AND PROPORTIONS :    1, 0.47       2, 0.53
  8143 1110-26-62      26    62.00       2530.    
  8144 1044-26-82      26    82.00       2565.    
  8145 1017-26-62      26    62.00       2545.    
  8146 973-26-95       26    95.00       2601.    
  8147 870-26-95       26    95.00       2615.    
  8148 3417-26-95      26    95.00       2627.    
     MULTIPLE LAYERS AND PROPORTIONS :    2, 0.14       3, 0.86
  8149 1246-26-305     26    305.0       2722.    
  8150 1593-26-18      26    18.00       2766.    
  8151 757-26-141      26    141.0       2333.    
     MULTIPLE LAYERS AND PROPORTIONS :    2, 0.16       3, 0.84
  8152 758-26-1        26    1.000       2395.    
     MULTIPLE LAYERS AND PROPORTIONS :    2, 0.23       3, 0.77
  8153 722-26-64       26    64.00       2443.    
  8154 737-26-1        26    1.000       2415.    
  8155 656-26-1        26    1.000       2498.    
  8156 602-26-1        26    1.000       2502.    
  8157 598-26-1        26    1.000       2492.    
  8158 720-26-1        26    1.000       2222.    
  8159 674-26-43       26    43.00       2549.    
     MULTIPLE LAYERS AND PROPORTIONS :    1, 0.84       2, 0.16
  8160 673-26-49       26    49.00       2545.    
     MULTIPLE LAYERS AND PROPORTIONS :    1, 0.32       2, 0.68
  8161 810-26-43       26    43.00       2512.    
  8162 785-26-65       26    65.00       2582.    
  8163 681-26-96       26    96.00       2620.    
  8164 608-26-64       26    64.00       2631.    
     MULTIPLE LAYERS AND PROPORTIONS :    2, 0.74       3, 0.26
  8165 559-26-60       26    60.00       2643.    
  8166 731-26-98       26    98.00       2678.    
  8167 683-26-91       26    91.00       2679.    
  8168 496-26-56       26    56.00       2578.    
  8169 408-26-46       26    46.00       2653.    
  8170 391-26-72       26    72.00       2685.    
     MULTIPLE LAYERS AND PROPORTIONS :    2, 0.22       3, 0.78
  8171 451-26-85       26    85.00       2697.    
  8172 477-26-63       26    63.00       2661.    
  8173 302-26-47       26    47.00       2680.    
  8174 295-26-47       26    47.00       2724.    
  8175 281-26-47       26    47.00       2687.    
  8176 270-26-41       26    41.00       2694.    
  8177 278-26-11       26    11.00       2716.    
     MULTIPLE LAYERS AND PROPORTIONS :    1, 0.77       2, 0.23
  8178 250-26-11       26    11.00       2727.    
     MULTIPLE LAYERS AND PROPORTIONS :    2, 0.02       3, 0.98
  8179 3333-27-99      27    99.00       1707.    
  8180 3176-27-347     27    347.0       1652.    
  8181 3055-27-126     27    126.0       2453.    
  8182 2747-27-253     27    253.0       2052.    
  8183 995-27-236      27    236.0       2110.    
     MULTIPLE LAYERS AND PROPORTIONS :    2, 0.06       3, 0.94
  8184 778-27-348      27    348.0       2610.    
  8185 718-27-151      27    151.0       2631.    
     MULTIPLE LAYERS AND PROPORTIONS :    2, 0.38       3, 0.62
  8186 3239-30-335     30    335.0       2915.    
  8187 3181-30-185     30    185.0       2850.    
     MULTIPLE LAYERS AND PROPORTIONS :    2, 0.28       3, 0.72
  8188 3211-30-274     30    274.0       2885.    
  8189 3189-30-181     30    181.0       2873.    
     MULTIPLE LAYERS AND PROPORTIONS :    2, 0.35       3, 0.65
  8190 3198-30-274     30    274.0       2910.    
  8191 3192-30-274     30    274.0       2905.    
  8192 3124-30-213     30    213.0       2790.    
  8193 2832-30-108     30    108.0       2015.    
     MULTIPLE LAYERS AND PROPORTIONS :    1, 0.79       2, 0.21
  8194 2673-30-244     30    244.0       2073.    
     MULTIPLE LAYERS AND PROPORTIONS :    1, 0.49       2, 0.51
  8195 2876-30-99      30    99.00       2185.    
     MULTIPLE LAYERS AND PROPORTIONS :    2, 0.26       3, 0.74
  8196 2774-30-91      30    91.00       2193.    
  8197 2733-30-27      30    27.00       2093.    
  8198 2603-30-29      30    29.00       2118.    
     MULTIPLE LAYERS AND PROPORTIONS :    1, 0.75       2, 0.25
  8199 2652-30-27      30    27.00       2115.    
     MULTIPLE LAYERS AND PROPORTIONS :    1, 0.25       2, 0.75
  8200 2576-30-30      30    30.00       2130.    
  8201 2542-30-30      30    30.00       2154.    
     MULTIPLE LAYERS AND PROPORTIONS :    1, 0.57       2, 0.43
  8202 2505-30-29      30    29.00       2150.    
  8203 2355-30-1       30    1.000       2157.    
     MULTIPLE LAYERS AND PROPORTIONS :    2, 0.78       3, 0.22
  8204 2464-30-29      30    29.00       2154.    
  8205 2357-30-30      30    30.00       2173.    
  8206 2373-30-30      30    30.00       2161.    
     MULTIPLE LAYERS AND PROPORTIONS :    1, 0.25       2, 0.60       3, 0.15
  8207 2446-30-30      30    30.00       2180.    
     MULTIPLE LAYERS AND PROPORTIONS :    1, 0.60       2, 0.40
  8208 2445-30-121     30    121.0       2188.    
  8209 2237-30-34      30    34.00       2202.    
  8210 2137-30-35      30    35.00       2201.    
     MULTIPLE LAYERS AND PROPORTIONS :    2, 0.99       3, 0.01
  8211 2109-30-30      30    30.00       2196.    
  8212 2038-30-1       30    1.000       2202.    
  8213 2059-30-35      30    35.00       2212.    
     MULTIPLE LAYERS AND PROPORTIONS :    1, 0.99       2, 0.01
  8214 2227-30-273     30    273.0       2279.    
     MULTIPLE LAYERS AND PROPORTIONS :    1, 0.53       2, 0.28       3, 0.19
  8215 2056-30-18      30    18.00       2281.    
  8216 2019-30-111     30    111.0       2276.    
     MULTIPLE LAYERS AND PROPORTIONS :    1, 0.69       2, 0.31
  8217 1998-30-244     30    244.0       2298.    
  8218 2086-30-14      30    14.00       2348.    
  8219 2069-30-244     30    244.0       2359.    
     MULTIPLE LAYERS AND PROPORTIONS :    1, 0.57       2, 0.43
  8220 2081-30-105     30    105.0       2369.    
  8221 2246-30-335     30    335.0       2440.    
  8222 2001-30-305     30    305.0       2546.    
  8223 1617-30-121     30    121.0       2310.    
  8224 1391-30-43      30    43.00       2344.    
     MULTIPLE LAYERS AND PROPORTIONS :    1, 0.42       2, 0.45       3, 0.13
  8225 1427-30-11      30    11.00       2340.    
  8226 1400-30-42      30    42.00       2345.    
  8227 1619-30-57      30    57.00       2328.    
     MULTIPLE LAYERS AND PROPORTIONS :    1, 0.59       2, 0.41
  8228 1693-30-51      30    51.00       2339.    
  8229 1500-30-56      30    56.00       2304.    
     MULTIPLE LAYERS AND PROPORTIONS :    1, 0.32       2, 0.68
  8230 1312-30-349     30    349.0       2406.    
  8231 1874-30-1       30    1.000       2575.    
  8232 1857-30-157     30    157.0       2523.    
  8233 1843-30-213     30    213.0       2506.    
     MULTIPLE LAYERS AND PROPORTIONS :    1, 0.35       2, 0.65
  8234 1846-30-43      30    43.00       2486.    
     MULTIPLE LAYERS AND PROPORTIONS :    1, 0.30       2, 0.70
  8235 1676-30-79      30    79.00       2516.    
  8236 1574-30-246     30    246.0       2530.    
  8237 1368-30-60      30    60.00       2431.    
     MULTIPLE LAYERS AND PROPORTIONS :    1, 0.15       2, 0.85
  8238 1366-30-43      30    43.00       2461.    
  8239 1348-30-43      30    43.00       2520.    
  8240 1320-30-335     30    335.0       2645.    
  8241 1276-30-121     30    121.0       2559.    
  8242 1751-30-305     30    305.0       2638.    
  8243 1752-30-305     30    305.0       2582.    
  8244 1749-30-305     30    305.0       2565.    
  8245 1754-30-130     30    130.0       2612.    
  8246 812-30-6        30    6.000       2350.    
     MULTIPLE LAYERS AND PROPORTIONS :    2, 0.08       3, 0.92
  8247 1235-30-43      30    43.00       2363.    
     MULTIPLE LAYERS AND PROPORTIONS :    2, 0.35       3, 0.65
  8248 1197-30-43      30    43.00       2463.    
  8249 1187-30-182     30    182.0       2476.    
     MULTIPLE LAYERS AND PROPORTIONS :    1, 0.30       2, 0.66       3, 0.04
  8250 1194-30-1       30    1.000       2495.    
  8251 529-30-351      30    351.0       2510.    
     MULTIPLE LAYERS AND PROPORTIONS :    2, 0.04       3, 0.96
  8252 686-30-127      30    127.0       2532.    
     MULTIPLE LAYERS AND PROPORTIONS :    1, 0.21       2, 0.32       3, 0.47
  8253 488-30-44       30    44.00       2517.    
  8254 485-30-351      30    351.0       2554.    
     MULTIPLE LAYERS AND PROPORTIONS :    2, 0.05       3, 0.95
  8255 476-30-60       30    60.00       2570.    
  8256 408-30-349      30    349.0       2630.    
  8257 402-30-213      30    213.0       2615.    
  8258 366-30-42       30    42.00       2663.    
  8259 301-30-342      30    342.0       2660.    
  8260 270-30-342      30    342.0       2667.    
  8261 3376-31-2       31    2.000       1547.    
  8262 3351-31-101     31    101.0       1629.    
  8263 3272-31-104     31    104.0       2957.    
  8264 3145-31-193     31    193.0       1750.    
     MULTIPLE LAYERS AND PROPORTIONS :    1, 0.13       2, 0.87
  8265 3161-31-244     31    244.0       1725.    
  8266 3038-31-1       31    1.000       1696.    
     MULTIPLE LAYERS AND PROPORTIONS :    1, 0.19       2, 0.77       3, 0.04
  8267 3243-31-1       31    1.000       2895.    
  8268 3256-31-104     31    104.0       2929.    
     MULTIPLE LAYERS AND PROPORTIONS :    2, 0.47       3, 0.53
  8269 3208-31-273     31    273.0       2890.    
     MULTIPLE LAYERS AND PROPORTIONS :    2, 0.57       3, 0.43
  8270 3153-31-348     31    348.0       2821.    
     MULTIPLE LAYERS AND PROPORTIONS :    2, 0.40       3, 0.60
  8271 3164-31-283     31    283.0       2845.    
     MULTIPLE LAYERS AND PROPORTIONS :    2, 0.39       3, 0.61
  8272 3093-31-104     31    104.0       2691.    
  8273 2787-31-57      31    57.00       1715.    
  8274 2734-31-1       31    1.000       1719.    
     MULTIPLE LAYERS AND PROPORTIONS :    2, 0.06       3, 0.94
  8275 2823-31-196     31    196.0       1708.    
  8276 2927-31-29      31    29.00       1953.    
     MULTIPLE LAYERS AND PROPORTIONS :    1, 0.20       2, 0.63       3, 0.17
  8277 2743-31-220     31    220.0       2083.    
  8278 2756-31-252     31    252.0       2034.    
     MULTIPLE LAYERS AND PROPORTIONS :    1, 0.13       2, 0.87
  8279 2699-31-1       31    1.000       2064.    
  8280 2687-31-266     31    266.0       2081.    
     MULTIPLE LAYERS AND PROPORTIONS :    1, 0.55       2, 0.45
  8281 2615-31-1       31    1.000       1813.    
  8282 2650-31-60      31    60.00       2101.    
  8283 2558-31-121     31    121.0       2120.    
     MULTIPLE LAYERS AND PROPORTIONS :    1, 0.23       2, 0.77
  8284 2475-31-120     31    120.0       2142.    
     MULTIPLE LAYERS AND PROPORTIONS :    1, 0.31       2, 0.69
  8285 2460-31-120     31    120.0       2159.    
     MULTIPLE LAYERS AND PROPORTIONS :    1, 0.38       2, 0.62
  8286 2427-31-120     31    120.0       2172.    
     MULTIPLE LAYERS AND PROPORTIONS :    1, 0.33       2, 0.67
  8287 2326-31-121     31    121.0       2234.    
     MULTIPLE LAYERS AND PROPORTIONS :    1, 0.30       2, 0.58       3, 0.12
  8288 2212-31-121     31    121.0       2209.    
     MULTIPLE LAYERS AND PROPORTIONS :    1, 0.13       2, 0.87
  8289 1991-31-36      31    36.00       2203.    
     MULTIPLE LAYERS AND PROPORTIONS :    1, 0.40       2, 0.60
  8290 1958-31-36      31    36.00       2205.    
     MULTIPLE LAYERS AND PROPORTIONS :    1, 0.30       2, 0.70
  8291 2057-31-121     31    121.0       2211.    
  8292 1951-31-36      31    36.00       2239.    
     MULTIPLE LAYERS AND PROPORTIONS :    1, 0.81       2, 0.19
  8293 2014-31-121     31    121.0       2308.    
  8294 1974-31-120     31    120.0       2295.    
  8295 2102-31-119     31    119.0       2325.    
     MULTIPLE LAYERS AND PROPORTIONS :    1, 0.19       2, 0.81
  8296 2054-31-91      31    91.00       2321.    
     MULTIPLE LAYERS AND PROPORTIONS :    1, 0.31       2, 0.69
  8297 2339-31-78      31    78.00       2474.    
  8298 2330-31-196     31    196.0       2520.    
  8299 2100-31-78      31    78.00       2521.    
  8300 2043-31-211     31    211.0       2485.    
     MULTIPLE LAYERS AND PROPORTIONS :    1, 0.59       2, 0.41
  8301 1849-31-1       31    1.000       2249.    
     MULTIPLE LAYERS AND PROPORTIONS :    1, 0.73       2, 0.27
  8302 1471-31-113     31    113.0       2330.    
     MULTIPLE LAYERS AND PROPORTIONS :    1, 0.57       2, 0.43
  8303 1461-31-40      31    40.00       2308.    
     MULTIPLE LAYERS AND PROPORTIONS :    2, 0.50       3, 0.50
  8304 1321-31-40      31    40.00       2335.    
  8305 1306-31-113     31    113.0       2337.    
     MULTIPLE LAYERS AND PROPORTIONS :    1, 0.31       2, 0.69
  8306 1307-31-113     31    113.0       2342.    
  8307 1305-31-121     31    121.0       2345.    
  8308 1886-31-119     31    119.0       2327.    
  8309 1879-31-119     31    119.0       2322.    
     MULTIPLE LAYERS AND PROPORTIONS :    1, 0.20       2, 0.80
  8310 1779-31-119     31    119.0       2295.    
  8311 1724-31-118     31    118.0       2294.    
  8312 1694-31-119     31    119.0       2307.    
     MULTIPLE LAYERS AND PROPORTIONS :    1, 0.79       2, 0.21
  8313 1695-31-120     31    120.0       2314.    
  8314 1596-31-119     31    119.0       2320.    
  8315 1683-31-68      31    68.00       2347.    
     MULTIPLE LAYERS AND PROPORTIONS :    1, 0.71       2, 0.29
  8316 1552-31-117     31    117.0       2327.    
  8317 1533-31-118     31    118.0       2316.    
  8318 1813-31-117     31    117.0       2308.    
  8319 1538-31-117     31    117.0       2310.    
     MULTIPLE LAYERS AND PROPORTIONS :    1, 0.14       2, 0.86
  8320 1470-31-117     31    117.0       2313.    
  8321 1453-31-117     31    117.0       2336.    
  8322 1502-31-120     31    120.0       2339.    
     MULTIPLE LAYERS AND PROPORTIONS :    1, 0.40       2, 0.60
  8323 1416-31-62      31    62.00       2338.    
     MULTIPLE LAYERS AND PROPORTIONS :    1, 0.72       2, 0.28
  8324 1784-31-148     31    148.0       2366.    
     MULTIPLE LAYERS AND PROPORTIONS :    1, 0.20       2, 0.80
  8325 1659-31-114     31    114.0       2355.    
     MULTIPLE LAYERS AND PROPORTIONS :    1, 0.55       2, 0.45
  8326 1671-31-114     31    114.0       2350.    
     MULTIPLE LAYERS AND PROPORTIONS :    1, 0.72       2, 0.28
  8327 1602-31-114     31    114.0       2371.    
  8328 1507-31-114     31    114.0       2358.    
  8329 1514-31-114     31    114.0       2349.    
     MULTIPLE LAYERS AND PROPORTIONS :    1, 0.14       2, 0.86
  8330 1495-31-69      31    69.00       2358.    
     MULTIPLE LAYERS AND PROPORTIONS :    1, 0.18       2, 0.82
  8331 1484-31-114     31    114.0       2348.    
  8332 1483-31-114     31    114.0       2436.    
  8333 1239-31-113     31    113.0       2352.    
     MULTIPLE LAYERS AND PROPORTIONS :    1, 0.16       2, 0.58       3, 0.26
  8334 1234-31-113     31    113.0       2349.    
     MULTIPLE LAYERS AND PROPORTIONS :    1, 0.14       2, 0.34       3, 0.52
  8335 1099-31-117     31    117.0       2361.    
     MULTIPLE LAYERS AND PROPORTIONS :    1, 0.26       2, 0.24       3, 0.50
  8336 853-31-118      31    118.0       2482.    
  8337 720-31-1        31    1.000       2221.    
  8338 729-31-118      31    118.0       2508.    
     MULTIPLE LAYERS AND PROPORTIONS :    1, 0.47       2, 0.53
  8339 679-31-118      31    118.0       2516.    
     MULTIPLE LAYERS AND PROPORTIONS :    1, 0.95       2, 0.05
  8340 810-31-118      31    118.0       2479.    
  8341 299-31-59       31    59.00       2671.    
     MULTIPLE LAYERS AND PROPORTIONS :    2, 0.14       3, 0.86
  8342 3281-32-351     32    351.0       1586.    
  8343 3347-32-97      32    97.00       2965.    
  8344 3051-32-152     32    152.0       1691.    
     MULTIPLE LAYERS AND PROPORTIONS :    2, 0.43       3, 0.57
  8345 3004-32-94      32    94.00       2011.    
     MULTIPLE LAYERS AND PROPORTIONS :    2, 0.30       3, 0.70
  8346 2997-32-94      32    94.00       2234.    
  8347 3016-32-94      32    94.00       2280.    
  8348 3055-32-94      32    94.00       2452.    
  8349 2880-32-95      32    95.00       2083.    
  8350 2883-32-196     32    196.0       2011.    
  8351 2977-32-96      32    96.00       2361.    
     MULTIPLE LAYERS AND PROPORTIONS :    2, 0.89       3, 0.11
  8352 2914-32-96      32    96.00       2130.    
  8353 2930-32-96      32    96.00       2337.    
  8354 2869-32-96      32    96.00       2320.    
  8355 2898-32-96      32    96.00       2125.    
  8356 2841-32-96      32    96.00       2182.    
  8357 2742-32-95      32    95.00       2130.    
  8358 2956-32-95      32    95.00       2527.    
  8359 2441-32-216     32    216.0       1804.    
  8360 2477-32-137     32    137.0       1798.    
  8361 2334-32-335     32    335.0       2382.    
  8362 2314-32-342     32    342.0       2365.    
  8363 2331-32-29      32    29.00       2480.    
  8364 2128-32-154     32    154.0       2478.    
  8365 2092-32-154     32    154.0       2468.    
  8366 2085-32-154     32    154.0       2448.    
  8367 1278-32-50      32    50.00       2361.    
  8368 1791-32-119     32    119.0       2331.    
     MULTIPLE LAYERS AND PROPORTIONS :    1, 0.28       2, 0.72
  8369 1131-32-62      32    62.00       2436.    
  8370 1035-32-71      32    71.00       2477.    
  8371 2799-35-122     35    122.0       1998.    
     MULTIPLE LAYERS AND PROPORTIONS :    2, 0.81       3, 0.19
  8372 861-35-329      35    329.0       2230.    
  8373 3038-36-52      36    52.00       1680.    
     MULTIPLE LAYERS AND PROPORTIONS :    1, 0.19       2, 0.77       3, 0.04
  8374 2937-36-86      36    86.00       1764.    
     MULTIPLE LAYERS AND PROPORTIONS :    2, 0.86       3, 0.14
  8375 1428-36-91      36    91.00       1955.    
  8376 1106-36-164     36    164.0       2031.    
  8377 727-36-333      36    333.0       2585.    
     MULTIPLE LAYERS AND PROPORTIONS :    2, 0.85       3, 0.15
  8378 492-36-108      36    108.0       2478.    
  8379 380-36-78       36    78.00       2594.    
     MULTIPLE LAYERS AND PROPORTIONS :    2, 0.12       3, 0.88
  8380 3318-37-364     37    364.0       1613.    
     MULTIPLE LAYERS AND PROPORTIONS :    2, 0.14       3, 0.86
  8381 2476-37-182     37    182.0       2165.    
  8382 2437-37-1       37    1.000       2175.    
  8383 1436-37-201     37    201.0       2321.    
  8384 974-37-342      37    342.0       2328.    
  8385 981-37-84       37    84.00       2562.    
  8386 814-37-58       37    58.00       2570.    
  8387 697-37-41       37    41.00       2615.    
     MULTIPLE LAYERS AND PROPORTIONS :    2, 0.47       3, 0.53
  8388 659-37-16       37    16.00       2662.    
     MULTIPLE LAYERS AND PROPORTIONS :    1, 0.38       2, 0.53       3, 0.09

                                                     HEAD CHANGE
                                                      REFERENCE
        OBSERVATION                   ROW     COL    OBSERVATION
  OBS#     NAME       LAY  ROW  COL  OFFSET  OFFSET   (IF > 0)
     1  3522-15-337     3    4   65  -0.350   0.330        0
     2  3489-20-74      3    6   64  -0.200  -0.130        0
     3  3485-19-34      3    6   67   0.290   0.050        0
     4  3465-20-300     3    8   66   0.210  -0.090        0
     5  3415-15-154     3   12   67  -0.010   0.340        0
     6  3314-43-7       3   19   66  -0.310   0.240        0
     7  3241-5-82       3   23   68  -0.290  -0.200        0
     8  3384-7-41       2    4   12  -0.470  -0.420        0
     9  3384-12-10      2    4   12  -0.470  -0.420        0
    10  3384-16-340     2    4   12  -0.470  -0.420        0
    11  3384-21-335     2    4   12  -0.470  -0.420        0
    12  3384-27-13      2    4   12  -0.470  -0.420        0
    13  3384-32-5       2    4   12  -0.470  -0.420        0
    14  3384-36-349     2    4   12  -0.470  -0.420        0
    15  3400-55-321     3    1   19   0.030  -0.350        0
    16  3400-60-312     3    1   19   0.030  -0.350        0
    17  3400-65-363     3    1   19   0.030  -0.350        0
    18  3400-71-349     3    1   19   0.030  -0.350        0
    19  3401-55-321     2    1   19   0.030  -0.350        0
    20  3401-60-312     2    1   19   0.030  -0.350        0
    21  3401-65-363     2    1   19   0.030  -0.350        0
    22  3401-71-349     2    1   19   0.030  -0.350        0
    23  3397-11-313     2    2   17  -0.330   0.290        0
    24  3361-21-339     2    5   12   0.250  -0.430        0
    25  3361-32-5       2    5   12   0.250  -0.430        0
    26  3346-16-340     2    6   12  -0.010  -0.460        0
    27  3346-21-339     2    6   12  -0.010  -0.460        0
    28  3346-32-5       2    6   12  -0.010  -0.460        0
    29  3346-37-349     2    6   12  -0.010  -0.460        0
    30  3346-49-54      2    6   12  -0.010  -0.460        0
    31  3346-60-319     2    6   12  -0.010  -0.460        0
    32  3346-65-298     2    6   12  -0.010  -0.460        0
    33  3346-71-13      2    6   12  -0.010  -0.460        0
    34  3376-6-41       2    7   14  -0.080  -0.350        0
    35  3376-12-46      2    7   14  -0.080  -0.350        0
    36  3376-16-362     2    7   14  -0.080  -0.350        0
    37  3376-21-336     2    7   14  -0.080  -0.350        0
    38  3376-27-12      2    7   14  -0.080  -0.350        0
    39  3376-38-1       2    7   14  -0.080  -0.350        0
    40  3327-56-26      2    8   14  -0.210   0.480        0
    41  3327-66-18      2    8   14  -0.210   0.480        0
    42  3306-1-32       2    9   14   0.280  -0.140        0
    43  3299-38-41      2   10   14  -0.490   0.000        0
    44  3311-15-337     2    9   65  -0.220   0.430        0
    45  3313-32-7       2    9   16  -0.330  -0.390        0
    46  3313-38-1       2    9   16  -0.330  -0.390        0
    47  3313-56-26      2    9   16  -0.330  -0.390        0
    48  3313-66-18      2    9   16  -0.330  -0.390        0
    49  3303-56-26      2    9   15   0.320  -0.070        0
    50  3303-66-18      2    9   15   0.320  -0.070        0
    51  3302-12-32      2    9   16   0.400  -0.360        0
    52  3302-56-26      2    9   16   0.400  -0.360        0
    53  3302-66-18      2    9   16   0.400  -0.360        0
    54  3320-2-305      1    8   13   0.360   0.310        0
    55  3324-26-339     2    8   13   0.090  -0.470        0
    56  3312-16-335     2    9   13  -0.340  -0.460        0
    57  3312-21-335     2    9   13  -0.340  -0.460        0
    58  3312-32-1       2    9   13  -0.340  -0.460        0
    59  3312-36-51      2    9   13  -0.340  -0.460        0
    60  3294-1-60       2   10   13   0.230   0.470        0
    61  3291-16-362     2   10   13   0.230   0.500        0
    62  3288-12-32      2   11   12  -0.080   0.390        0
    63  3288-21-335     2   11   12  -0.080   0.390        0
    64  3288-32-7       2   11   12  -0.080   0.390        0
    65  3282-21-336     2   11   14   0.250  -0.480        0
    66  3282-32-7       2   11   14   0.250  -0.480        0
    67  3282-38-10      2   11   14   0.250  -0.480        0
    68  3285-5-179      2   11   16   0.160  -0.430        0
    69  3285-11-25      2   11   16   0.160  -0.430        0
    70  3285-16-341     2   11   16   0.160  -0.430        0
    71  3285-21-336     2   11   16   0.160  -0.430        0
    72  3279-12-39      2   11   16   0.430  -0.460        0
    73  3279-16-362     2   11   16   0.430  -0.460        0
    74  3279-21-341     2   11   16   0.430  -0.460        0
    75  3279-27-28      2   11   16   0.430  -0.460        0
    76  3281-21-336     2   11   16   0.350  -0.460        0
    77  3281-37-350     2   11   16   0.350  -0.460        0
    78  3268-21-274     2   13   15   0.150   0.500        0
    79  3268-38-6       2   13   15   0.150   0.500        0
    80  3259-16-348    -3   14   15   0.410  -0.150        0
    81  3259-32-7      -2   14   15   0.410  -0.150        0
    82  3259-36-350    -2   14   15   0.410  -0.150        0
    83  3237-1-365      1   15   15   0.330   0.390        0
    84  3237-3-355      1   15   15   0.330   0.390        0
    85  3237-12-59      1   15   15   0.330   0.390        0
    86  3234-6-284      2   15   15   0.370   0.360        0
    87  3234-12-32      2   15   15   0.370   0.360        0
    88  3234-16-348     2   15   15   0.370   0.360        0
    89  3231-21-341    -2   15   15   0.290   0.330        0
    90  3231-27-12     -2   15   15   0.290   0.330        0
    91  3231-38-3      -2   15   15   0.290   0.330        0
    92  3382-48-363     2    4   20  -0.370  -0.390        0
    93  3383-48-363     2    4   20  -0.370  -0.390        0
    94  3363-56-23      2    5   20   0.090   0.100        0
    95  3363-66-18      2    5   20   0.090   0.100        0
    96  3364-11-342    -2    5   20  -0.030  -0.450        0
    97  3364-16-362    -2    5   20  -0.030  -0.450        0
    98  3364-21-341    -2    5   20  -0.030  -0.450        0
    99  3364-27-28      2    5   20  -0.030  -0.450        0
   100  3364-32-4       2    5   20  -0.030  -0.450        0
   101  3364-36-349     2    5   20  -0.030  -0.450        0
   102  3364-43-19      2    5   20  -0.030  -0.450        0
   103  3364-49-54      2    5   20  -0.030  -0.450        0
   104  3364-56-25      2    5   20  -0.030  -0.450        0
   105  3364-60-319     2    5   20  -0.030  -0.450        0
   106  3364-65-298    -2    5   20  -0.030  -0.450        0
   107  3364-71-13     -2    5   20  -0.030  -0.450        0
   108  3364-71-365    -2    5   20  -0.030  -0.450        0
   109  3370-56-25      2    5   19  -0.490   0.090        0
   110  3370-61-72      2    5   19  -0.490   0.090        0
   111  3370-66-18      2    5   19  -0.490   0.090        0
   112  3353-21-335     2    6   20  -0.450  -0.460        0
   113  3353-27-12      2    6   20  -0.450  -0.460        0
   114  3353-56-25      2    6   20  -0.450  -0.460        0
   115  3353-66-18      2    6   20  -0.450  -0.460        0
   116  3351-56-25      2    6   20  -0.490  -0.230        0
   117  3351-61-72      2    6   20  -0.490  -0.230        0
   118  3351-66-18      2    6   20  -0.490  -0.230        0
   119  3310-56-23      3    9   23  -0.230  -0.260        0
   120  3307-56-23      2    9   23   0.040   0.160        0
   121  3307-61-73      2    9   23   0.040   0.160        0
   122  3307-66-20      2    9   23   0.040   0.160        0
   123  3292-56-25     -2   10   19   0.370  -0.310        0
   124  3292-61-73     -2   10   19   0.370  -0.310        0
   125  3292-66-19     -2   10   19   0.370  -0.310        0
   126  3278-11-296     2   11   19   0.480  -0.220        0
   127  3278-16-343     2   11   19   0.480  -0.220        0
   128  3278-21-340     2   11   19   0.480  -0.220        0
   129  3278-27-12      2   11   19   0.480  -0.220        0
   130  3278-32-4       2   11   19   0.480  -0.220        0
   131  3278-36-350     2   11   19   0.480  -0.220        0
   132  3278-43-19      2   11   19   0.480  -0.220        0
   133  3278-49-54      2   11   19   0.480  -0.220        0
   134  3278-56-25      2   11   19   0.480  -0.220        0
   135  3278-60-319     2   11   19   0.480  -0.220        0
   136  3278-65-301     2   11   19   0.480  -0.220        0
   137  3278-71-13      2   11   19   0.480  -0.220        0
   138  3278-71-365     2   11   19   0.480  -0.220        0
   139  3290-56-25     -2   10   20   0.480  -0.370        0
   140  3290-61-73     -2   10   20   0.480  -0.370        0
   141  3290-66-19     -2   10   20   0.480  -0.370        0
   142  3250-12-32      1   15   22  -0.300   0.010        0
   143  3250-16-363     1   15   22  -0.300   0.010        0
   144  3250-21-335     1   15   22  -0.300   0.010        0
   145  3250-32-7       1   15   22  -0.300   0.010        0
   146  3250-36-352     1   15   22  -0.300   0.010        0
   147  3308-56-25     -2   15   22  -0.380   0.080        0
   148  3308-61-73     -2   15   22  -0.380   0.080        0
   149  3308-66-20     -2   15   22  -0.380   0.080        0
   150  3249-16-363     1   15   22  -0.420  -0.340        0
   151  3249-21-340     1   15   22  -0.420  -0.340        0
   152  3249-36-352     1   15   22  -0.420  -0.340        0
   153  3249-56-25      1   15   22  -0.420  -0.340        0
   154  3249-61-73      1   15   22  -0.420  -0.340        0
   155  3233-3-355      1   15   22   0.390   0.430        0
   156  3233-6-341      1   15   22   0.390   0.430        0
   157  3233-12-59      1   15   22   0.390   0.430        0
   158  3233-16-311     1   15   22   0.390   0.430        0
   159  3230-16-348    -2   16   23  -0.460  -0.020        0
   160  3230-21-340    -2   16   23  -0.460  -0.020        0
   161  3230-27-1      -2   16   23  -0.460  -0.020        0
   162  3230-32-7      -2   16   23  -0.460  -0.020        0
   163  3230-36-352     2   16   23  -0.460  -0.020        0
   164  3230-56-25      2   16   23  -0.460  -0.020        0
   165  3230-61-72      2   16   23  -0.460  -0.020        0
   166  3229-17-4      -2   15   23   0.430   0.440        0
   167  3247-61-73      2   15   24  -0.180  -0.370        0
   168  3247-66-20      2   15   24  -0.180  -0.370        0
   169  3368-56-25      3    5   30  -0.230   0.240        0
   170  3333-12-10      2    7   30   0.410   0.170        0
   171  3333-16-343     2    7   30   0.410   0.170        0
   172  3333-32-85      3    7   30   0.410   0.170        0
   173  3333-35-53      3    7   30   0.410   0.170        0
   174  3332-49-54      2    7   30   0.410   0.200        0
   175  3332-56-26      2    7   30   0.410   0.200        0
   176  3332-60-319     2    7   30   0.410   0.200        0
   177  3332-65-298     2    7   30   0.410   0.200        0
   178  3332-71-13      2    7   30   0.410   0.200        0
   179  3332-71-365     2    7   30   0.410   0.200        0
   180  3330-56-25      2    8   29  -0.360   0.490        0
   181  3315-48-300     3    9   28  -0.140   0.090        0
   182  3315-55-321     3    9   28  -0.140   0.090        0
   183  3315-60-312     3    9   28  -0.140   0.090        0
   184  3315-65-363     3    9   28  -0.140   0.090        0
   185  3315-71-351     3    9   28  -0.140   0.090        0
   186  3316-48-300     2    9   28  -0.140   0.090        0
   187  3316-55-321     2    9   28  -0.140   0.090        0
   188  3316-60-312     2    9   28  -0.140   0.090        0
   189  3316-65-363     2    9   28  -0.140   0.090        0
   190  3316-71-351     2    9   28  -0.140   0.090        0
   191  3284-56-25      3   11   34   0.320   0.050        0
   192  3275-38-12      3   12   35  -0.290   0.050        0
   193  3287-38-24      2   11   30   0.160  -0.390        0
   194  3265-48-364     2   14   29  -0.470   0.250        0
   195  3265-56-25     -2   14   29  -0.470   0.250        0
   196  3228-56-20     -2   15   28   0.480   0.110        0
   197  3228-61-73     -2   15   28   0.480   0.110        0
   198  3228-66-19     -2   15   28   0.480   0.110        0
   199  3347-20-74      3    6   64  -0.200  -0.130        0
   200  3347-26-157     3    6   64  -0.200  -0.130        0
   201  3347-37-33      3    6   64  -0.200  -0.130        0
   202  3347-43-82      3    6   64  -0.200  -0.130        0
   203  3347-48-336     3    6   64  -0.200  -0.130        0
   204  3347-56-23      3    6   64  -0.200  -0.130        0
   205  3347-61-62      3    6   64  -0.200  -0.130        0
   206  3347-65-299     3    6   64  -0.200  -0.130        0
   207  3347-71-12      3    6   64  -0.200  -0.130        0
   208  3347-71-365     3    6   64  -0.200  -0.130        0
   209  3378-15-337     2    4   65  -0.350   0.330        0
   210  3378-26-127     2    4   65  -0.350   0.330        0
   211  3378-33-312     2    4   65  -0.350   0.330        0
   212  3378-43-82      2    4   65  -0.350   0.330        0
   213  3378-48-337     2    4   65  -0.350   0.330        0
   214  3378-56-23      2    4   65  -0.350   0.330        0
   215  3378-61-62      2    4   65  -0.350   0.330        0
   216  3378-66-18      2    4   65  -0.350   0.330        0
   217  3336-71-63      3    7   72   0.200   0.480        0
   218  3343-19-34      2    6   67   0.290   0.050        0
   219  3343-26-121     2    6   67   0.290   0.050        0
   220  3343-33-311     2    6   67   0.290   0.050        0
   221  3343-43-82      2    6   67   0.290   0.050        0
   222  3343-48-336     2    6   67   0.290   0.050        0
   223  3343-56-25      2    6   67   0.290   0.050        0
   224  3343-61-62      2    6   67   0.290   0.050        0
   225  3343-66-24      2    6   67   0.290   0.050        0
   226  3343-71-63      2    6   67   0.290   0.050        0
   227  3322-20-300     3    8   66   0.210  -0.090        0
   228  3322-26-127     3    8   66   0.210  -0.090        0
   229  3322-48-337     3    8   66   0.210  -0.090        0
   230  3322-56-25      3    8   66   0.210  -0.090        0
   231  3322-61-60      3    8   66   0.210  -0.090        0
   232  3317-43-85      3    9   66  -0.490  -0.410        0
   233  3317-56-25      3    9   66  -0.490  -0.410        0
   234  3317-61-60      3    9   66  -0.490  -0.410        0
   235  3317-66-27      3    9   66  -0.490  -0.410        0
   236  3317-71-64      3    9   66  -0.490  -0.410        0
   237  3300-56-26      3   10   73  -0.420  -0.440        0
   238  3289-56-26      3   11   71  -0.080   0.000        0
   239  3289-61-65      3   11   71  -0.080   0.000        0
   240  3276-56-26      3   12   71  -0.360   0.260        0
   241  3270-56-26      2   12   72   0.140  -0.050        0
   242  3272-15-154     3   12   67  -0.010   0.340        0
   243  3272-26-125     3   12   67  -0.010   0.340        0
   244  3272-37-36      3   12   67  -0.010   0.340        0
   245  3272-43-27      3   12   67  -0.010   0.340        0
   246  3272-48-336     3   12   67  -0.010   0.340        0
   247  3272-56-26      3   12   67  -0.010   0.340        0
   248  3272-61-60      3   12   67  -0.010   0.340        0
   249  3272-71-12      2   12   67  -0.010   0.340        0
   250  3266-56-26      3   13   67   0.370  -0.180        0
   251  3260-33-313     2   14   73   0.130   0.180        0
   252  3260-48-334     2   14   73   0.130   0.180        0
   253  3260-56-26      2   14   73   0.130   0.180        0
   254  3222-38-6       2   16   24  -0.190   0.120        0
   255  3213-12-324     2   16   20   0.420   0.420        0
   256  3213-16-335     2   16   20   0.420   0.420        0
   257  3213-21-335     2   16   20   0.420   0.420        0
   258  3213-32-7       2   16   20   0.420   0.420        0
   259  3213-38-10      2   16   20   0.420   0.420        0
   260  3213-56-19      2   16   20   0.420   0.420        0
   261  3205-2-230     -2   17   18  -0.170   0.310        0
   262  3205-22-37     -2   17   18  -0.170   0.310        0
   263  3191-2-188      1   18   18  -0.250   0.340        0
   264  3178-17-4       2   18   18   0.440   0.430        0
   265  3178-22-37      2   18   18   0.440   0.430        0
   266  3178-32-85      2   18   18   0.440   0.430        0
   267  3178-36-65      2   18   18   0.440   0.430        0
   268  3178-42-349     2   18   18   0.440   0.430        0
   269  3178-48-341     2   18   18   0.440   0.430        0
   270  3178-56-23      2   18   18   0.440   0.430        0
   271  3178-60-319     2   18   18   0.440   0.430        0
   272  3177-17-4      -2   18   20   0.480  -0.330        0
   273  3176-11-297    -2   18   20   0.330   0.350        0
   274  3176-16-342    -2   18   20   0.330   0.350        0
   275  3176-21-342    -2   18   20   0.330   0.350        0
   276  3176-32-7       2   18   20   0.330   0.350        0
   277  3176-34-339     2   18   20   0.330   0.350        0
   278  3174-21-335     2   18   22   0.370   0.330        0
   279  3174-56-19      2   18   22   0.370   0.330        0
   280  3174-61-60      2   18   22   0.370   0.330        0
   281  3174-66-24      2   18   22   0.370   0.330        0
   282  3188-2-335      1   18   24  -0.120   0.400        0
   283  3188-6-341      1   18   24  -0.120   0.400        0
   284  3188-10-350     1   18   24  -0.120   0.400        0
   285  3199-38-6      -2   17   26   0.350   0.320        0
   286  3199-48-337    -2   17   26   0.350   0.320        0
   287  3199-61-60     -2   17   26   0.350   0.320        0
   288  3175-48-337     2   18   24   0.460   0.500        0
   289  3175-56-19      2   18   24   0.460   0.500        0
   290  3175-66-24      2   18   24   0.460   0.500        0
   291  3196-56-19      2   18   26  -0.460   0.480        0
   292  3171-21-335     2   19   26  -0.460   0.280        0
   293  3171-26-313     2   19   26  -0.460   0.280        0
   294  3171-48-337     2   19   26  -0.460   0.280        0
   295  3173-48-337     2   18   26   0.500   0.220        0
   296  3173-56-19      2   18   26   0.500   0.220        0
   297  3173-61-60      2   18   26   0.500   0.220        0
   298  3173-66-20      2   18   26   0.500   0.220        0
   299  3172-56-19      2   19   23  -0.470   0.430        0
   300  3172-61-60      2   19   23  -0.470   0.430        0
   301  3172-66-24      2   19   23  -0.470   0.430        0
   302  3163-12-91      2   20   24  -0.360   0.110        0
   303  3163-21-335     2   20   24  -0.360   0.110        0
   304  3197-42-351    -2   17   22   0.420   0.330        0
   305  3197-48-348    -2   17   22   0.420   0.330        0
   306  3197-56-4      -2   17   22   0.420   0.330        0
   307  3197-61-5      -2   17   22   0.420   0.330        0
   308  3197-65-361    -2   17   22   0.420   0.330        0
   309  3197-71-355    -2   17   22   0.420   0.330        0
   310  3170-16-348    -2   19   22  -0.090   0.450        0
   311  3170-21-342     2   19   22  -0.090   0.450        0
   312  3170-38-6       2   19   22  -0.090   0.450        0
   313  3170-42-351     2   19   22  -0.090   0.450        0
   314  3170-48-348     2   19   22  -0.090   0.450        0
   315  3170-55-354     2   19   22  -0.090   0.450        0
   316  3170-61-5       2   19   22  -0.090   0.450        0
   317  3170-65-361     2   19   22  -0.090   0.450        0
   318  3170-71-355     2   19   22  -0.090   0.450        0
   319  3139-21-343     2   20   21   0.360   0.440        0
   320  3139-71-355     2   20   21   0.360   0.440        0
   321  3143-17-5       2   20   22   0.330   0.320        0
   322  3143-22-37      2   20   22   0.330   0.320        0
   323  3143-27-31      2   20   22   0.330   0.320        0
   324  3143-55-354     2   20   22   0.330   0.320        0
   325  3143-61-5       2   20   22   0.330   0.320        0
   326  3143-65-361     2   20   22   0.330   0.320        0
   327  3143-71-355     2   20   22   0.330   0.320        0
   328  3166-1-1       -2   19   18   0.360   0.330        0
   329  3166-11-335    -2   19   18   0.360   0.330        0
   330  3166-21-335    -2   19   18   0.360   0.330        0
   331  3100-16-338     3   22   17   0.490   0.480        0
   332  3100-21-335    -2   22   17   0.490   0.480        0
   333  3100-43-60      3   22   17   0.490   0.480        0
   334  3100-55-354     3   22   17   0.490   0.480        0
   335  3100-61-5      -2   22   17   0.490   0.480        0
   336  3100-66-20     -2   22   17   0.490   0.480        0
   337  3100-71-355    -2   22   17   0.490   0.480        0
   338  2939-42-351     2   22   18   0.380   0.160        0
   339  2939-61-5       2   22   18   0.380   0.160        0
   340  2939-70-352     2   22   18   0.380   0.160        0
   341  2939-71-355     2   22   18   0.380   0.160        0
   342  3099-21-335    -2   22   18   0.380   0.230        0
   343  3099-61-5      -2   22   18   0.380   0.230        0
   344  3099-66-20     -2   22   18   0.380   0.230        0
   345  3099-71-355    -2   22   18   0.380   0.230        0
   346  3113-1-59       2   21   22   0.440   0.350        0
   347  3113-6-341      2   21   22   0.440   0.350        0
   348  3113-12-362     2   21   22   0.440   0.350        0
   349  3113-22-37      2   21   22   0.440   0.350        0
   350  3113-27-31      2   21   22   0.440   0.350        0
   351  3113-37-341     2   21   22   0.440   0.350        0
   352  3113-42-349     2   21   22   0.440   0.350        0
   353  3113-48-341     2   21   22   0.440   0.350        0
   354  3113-55-354     2   21   22   0.440   0.350        0
   355  3113-60-319     2   21   22   0.440   0.350        0
   356  3113-65-298     2   21   22   0.440   0.350        0
   357  3113-71-355     2   21   22   0.440   0.350        0
   358  3097-12-170     2   22   22   0.470   0.410        0
   359  3097-17-5       2   22   22   0.470   0.410        0
   360  3097-42-351     2   22   22   0.470   0.410        0
   361  3097-48-348     2   22   22   0.470   0.410        0
   362  3097-55-354     2   22   22   0.470   0.410        0
   363  3097-61-5       2   22   22   0.470   0.410        0
   364  3097-65-361     2   22   22   0.470   0.410        0
   365  3097-71-355     2   22   22   0.470   0.410        0
   366  3095-42-351     2   22   22   0.390   0.310        0
   367  3095-48-348     2   22   22   0.390   0.310        0
   368  3095-55-354     2   22   22   0.390   0.310        0
   369  3095-61-5       2   22   22   0.390   0.310        0
   370  3095-65-361     2   22   22   0.390   0.310        0
   371  3095-71-355     2   22   22   0.390   0.310        0
   372  3096-8-283     -2   22   24   0.360   0.360        0
   373  3096-17-5      -2   22   24   0.360   0.360        0
   374  3096-21-335     2   22   24   0.360   0.360        0
   375  3135-8-282     -2   20   26   0.490   0.410        0
   376  3135-11-355    -2   20   26   0.490   0.410        0
   377  3135-16-349    -2   20   26   0.490   0.410        0
   378  3135-21-312     2   20   26   0.490   0.410        0
   379  3135-26-292     2   20   26   0.490   0.410        0
   380  3135-38-5       2   20   26   0.490   0.410        0
   381  3135-48-337     2   20   26   0.490   0.410        0
   382  3135-56-19      2   20   26   0.490   0.410        0
   383  3135-61-60      2   20   26   0.490   0.410        0
   384  3121-55-354     2   21   25   0.020   0.370        0
   385  3121-61-5       2   21   25   0.020   0.370        0
   386  3121-66-20      2   21   25   0.020   0.370        0
   387  3121-71-365     2   21   25   0.020   0.370        0
   388  3059-10-57      1   24   26   0.200   0.400        0
   389  3059-17-5       1   24   26   0.200   0.400        0
   390  3059-27-31      2   24   26   0.200   0.400        0
   391  3059-37-33      2   24   26   0.200   0.400        0
   392  3059-42-349     2   24   26   0.200   0.400        0
   393  3059-48-342     2   24   26   0.200   0.400        0
   394  3059-56-20      2   24   26   0.200   0.400        0
   395  3059-60-319     2   24   26   0.200   0.400        0
   396  3059-65-301     1   24   26   0.200   0.400        0
   397  3059-71-365     1   24   26   0.200   0.400        0
   398  3078-21-335     2   23   24   0.390   0.360        0
   399  3080-11-297    -2   23   23   0.200  -0.360        0
   400  3075-56-20      2   24   24  -0.420   0.390        0
   401  3089-2-339      2   23   21  -0.080   0.080        0
   402  3089-6-341      2   23   21  -0.080   0.080        0
   403  3089-12-362     2   23   21  -0.080   0.080        0
   404  3089-16-313     2   23   21  -0.080   0.080        0
   405  3089-42-351     2   23   21  -0.080   0.080        0
   406  3089-65-361     2   23   21  -0.080   0.080        0
   407  3089-71-355     2   23   21  -0.080   0.080        0
   408  3053-11-297     2   24   21   0.450   0.010        0
   409  3053-16-349     2   24   21   0.450   0.010        0
   410  3053-22-37      2   24   21   0.450   0.010        0
   411  3053-32-85      2   24   21   0.450   0.010        0
   412  3053-42-351     2   24   21   0.450   0.010        0
   413  3053-48-348     2   24   21   0.450   0.010        0
   414  3053-55-353     2   24   21   0.450   0.010        0
   415  3053-61-5       2   24   21   0.450   0.010        0
   416  3053-65-361     2   24   21   0.450   0.010        0
   417  3053-71-355     2   24   21   0.450   0.010        0
   418  3050-55-353     2   24   21   0.490   0.010        0
   419  3050-61-5       2   24   21   0.490   0.010        0
   420  3050-65-361     2   24   21   0.490   0.010        0
   421  3050-71-355     2   24   21   0.490   0.010        0
   422  3076-37-33      3   24   22  -0.420   0.310        0
   423  3076-42-349     3   24   22  -0.420   0.310        0
   424  3076-48-342     3   24   22  -0.420   0.310        0
   425  3076-56-23      3   24   22  -0.420   0.310        0
   426  3076-61-60      3   24   22  -0.420   0.310        0
   427  3076-66-24      3   24   22  -0.420   0.310        0
   428  3077-55-354     3   23   17   0.450   0.480        0
   429  3077-61-5       3   23   17   0.450   0.480        0
   430  3077-66-20      3   23   17   0.450   0.480        0
   431  3077-71-355     3   23   17   0.450   0.480        0
   432  3065-48-348    -2   24   17  -0.210   0.440        0
   433  3021-1-107      2   26   18  -0.440   0.280        0
   434  3021-7-3        2   26   18  -0.440   0.280        0
   435  3020-7-3        3   26   18  -0.440   0.350        0
   436  3020-12-59      3   26   18  -0.440   0.350        0
   437  3020-16-314     3   26   18  -0.440   0.350        0
   438  3020-22-37      3   26   18  -0.440   0.350        0
   439  3020-27-31      3   26   18  -0.440   0.350        0
   440  2989-12-59      2   26   22   0.410  -0.480        0
   441  2995-16-313     1   26   26   0.230   0.070        0
   442  2995-22-37      2   26   26   0.230   0.070        0
   443  2995-27-31      2   26   26   0.230   0.070        0
   444  2995-32-85      2   26   26   0.230   0.070        0
   445  3201-48-300     3   17   32   0.140   0.060        0
   446  3201-55-321     3   17   32   0.140   0.060        0
   447  3201-60-312     3   17   32   0.140   0.060        0
   448  3201-65-363     3   17   32   0.140   0.060        0
   449  3201-71-10      3   17   32   0.140   0.060        0
   450  3202-48-300     2   17   32   0.140   0.060        0
   451  3202-55-321     2   17   32   0.140   0.060        0
   452  3202-60-312     2   17   32   0.140   0.060        0
   453  3202-65-363     2   17   32   0.140   0.060        0
   454  3202-71-10      2   17   32   0.140   0.060        0
   455  3200-21-335     3   18   36  -0.090   0.180        0
   456  3200-32-6       3   18   36  -0.090   0.180        0
   457  3200-36-351     3   18   36  -0.090   0.180        0
   458  3200-49-54      3   18   36  -0.090   0.180        0
   459  3200-56-24      3   18   36  -0.090   0.180        0
   460  3200-60-319     3   18   36  -0.090   0.180        0
   461  3200-65-298     3   18   36  -0.090   0.180        0
   462  3200-71-365     3   18   36  -0.090   0.180        0
   463  3154-1-337     -2   20   32   0.120  -0.340        0
   464  3154-6-286     -2   20   32   0.120  -0.340        0
   465  3154-11-298    -2   20   32   0.120  -0.340        0
   466  3154-16-358    -2   20   32   0.120  -0.340        0
   467  3154-21-343     2   20   32   0.120  -0.340        0
   468  3154-32-85      2   20   32   0.120  -0.340        0
   469  3154-37-33      2   20   32   0.120  -0.340        0
   470  3154-42-349     2   20   32   0.120  -0.340        0
   471  3150-48-337     2   20   32   0.160  -0.370        0
   472  3150-56-23      2   20   32   0.160  -0.370        0
   473  3150-60-319     2   20   32   0.160  -0.370        0
   474  3150-65-298     2   20   32   0.160  -0.370        0
   475  3150-71-11      2   20   32   0.160  -0.370        0
   476  3150-71-365     2   20   32   0.160  -0.370        0
   477  3158-12-85      2   20   32  -0.380  -0.140        0
   478  3158-16-342     2   20   32  -0.380  -0.140        0
   479  3158-21-346     2   20   32  -0.380  -0.140        0
   480  3158-56-25      2   20   32  -0.380  -0.140        0
   481  3158-61-55      2   20   32  -0.380  -0.140        0
   482  3158-66-19      2   20   32  -0.380  -0.140        0
   483  3179-8-1       -2   18   29   0.280   0.460        0
   484  3151-12-33      2   20   31   0.150  -0.410        0
   485  3151-16-342     2   20   31   0.150  -0.410        0
   486  3151-21-346     2   20   31   0.150  -0.410        0
   487  3151-56-23      2   20   31   0.150  -0.410        0
   488  3151-61-55      2   20   31   0.150  -0.410        0
   489  3151-66-18      2   20   31   0.150  -0.410        0
   490  3167-34-152     2   19   28   0.120  -0.260        0
   491  3103-38-3       2   22   29   0.100  -0.230        0
   492  3101-66-24     -2   22   29   0.180  -0.290        0
   493  3105-8-1       -2   22   31   0.180  -0.440        0
   494  3105-56-23      2   22   31   0.180  -0.440        0
   495  3105-61-55      2   22   31   0.180  -0.440        0
   496  3105-66-18      2   22   31   0.180  -0.440        0
   497  3142-12-1      -2   20   32   0.350   0.470        0
   498  3142-16-342    -2   20   32   0.350   0.470        0
   499  3142-56-24      2   20   32   0.350   0.470        0
   500  3142-61-55      2   20   32   0.350   0.470        0
   501  3142-66-19      2   20   32   0.350   0.470        0
   502  3138-21-346     2   20   32   0.390   0.470        0
   503  3138-56-24      2   20   32   0.390   0.470        0
   504  3138-61-55      2   20   32   0.390   0.470        0
   505  3138-66-19      2   20   32   0.390   0.470        0
   506  3119-48-337     2   21   32   0.190  -0.050        0
   507  3119-56-23      2   21   32   0.190  -0.050        0
   508  3119-61-60      2   21   32   0.190  -0.050        0
   509  3119-66-18      2   21   32   0.190  -0.050        0
   510  3130-2-305      1   21   32  -0.150   0.470        0
   511  3108-8-32      -2   22   33  -0.080  -0.200        0
   512  3104-56-26      2   22   34   0.070  -0.170        0
   513  3104-61-55      2   22   34   0.070  -0.170        0
   514  3104-66-19      2   22   34   0.070  -0.170        0
   515  3102-56-26     -2   22   34   0.110   0.000        0
   516  3102-61-55     -2   22   34   0.110   0.000        0
   517  3102-66-19     -2   22   34   0.110   0.000        0
   518  3140-48-300     3   20   35   0.350  -0.320        0
   519  3141-48-300     3   20   35   0.350  -0.320        0
   520  3061-66-19     -2   24   38   0.070  -0.470        0
   521  3085-1-337     -3   23   35   0.110   0.190        0
   522  3085-6-286     -3   23   35   0.110   0.190        0
   523  3085-11-361    -3   23   35   0.110   0.190        0
   524  3085-16-350    -3   23   35   0.110   0.190        0
   525  3085-21-346    -2   23   35   0.110   0.190        0
   526  3064-56-25      2   24   37  -0.050  -0.410        0
   527  3083-56-23     -2   23   34   0.150  -0.270        0
   528  3083-61-55     -2   23   34   0.150  -0.270        0
   529  3083-66-18     -2   23   34   0.150  -0.270        0
   530  3084-10-60     -2   23   32   0.140   0.080        0
   531  3084-48-341     2   23   32   0.140   0.080        0
   532  3084-56-23      2   23   32   0.140   0.080        0
   533  3084-61-55      2   23   32   0.140   0.080        0
   534  3084-66-18      2   23   32   0.140   0.080        0
   535  3081-48-341     2   23   32   0.180  -0.310        0
   536  3081-56-23      2   23   32   0.180  -0.310        0
   537  3081-61-55      2   23   32   0.180  -0.310        0
   538  3081-66-18      2   23   32   0.180  -0.310        0
   539  3079-1-365      1   23   32   0.370  -0.150        0
   540  3058-48-337     2   24   33   0.140  -0.400        0
   541  3058-56-23      2   24   33   0.140  -0.400        0
   542  3058-61-55      2   24   33   0.140  -0.400        0
   543  3058-66-18      2   24   33   0.140  -0.400        0
   544  3086-12-247    -2   23   31   0.100  -0.480        0
   545  3107-1-365      2   22   28  -0.050   0.480        0
   546  3107-11-334     2   22   28  -0.050   0.480        0
   547  3040-10-32      2   25   28   0.050   0.470        0
   548  3017-71-5       1   26   26  -0.310   0.490        0
   549  3017-71-365     1   26   26  -0.310   0.490        0
   550  3015-55-354     2   26   26  -0.270   0.490        0
   551  3015-71-5       2   26   26  -0.270   0.490        0
   552  3015-71-365     2   26   26  -0.270   0.490        0
   553  3054-10-32      2   24   31   0.330  -0.450        0
   554  3046-12-247     2   25   31  -0.370  -0.450        0
   555  3046-16-350     2   25   31  -0.370  -0.450        0
   556  3046-21-343     2   25   31  -0.370  -0.450        0
   557  3046-32-8       2   25   31  -0.370  -0.450        0
   558  3046-36-87      2   25   31  -0.370  -0.450        0
   559  3036-11-18     -2   25   31   0.170  -0.450        0
   560  3036-16-350    -2   25   31   0.170  -0.450        0
   561  3036-21-335    -2   25   31   0.170  -0.450        0
   562  3030-12-247    -2   25   33   0.250  -0.440        0
   563  3030-16-350    -2   25   33   0.250  -0.440        0
   564  3030-21-346    -2   25   33   0.250  -0.440        0
   565  3038-1-337     -3   25   35   0.140  -0.430        0
   566  3038-6-286     -3   25   35   0.140  -0.430        0
   567  3038-11-338    -3   25   35   0.140  -0.430        0
   568  3038-16-350    -3   25   35   0.140  -0.430        0
   569  3038-21-312    -3   25   35   0.140  -0.430        0
   570  3038-42-349    -3   25   35   0.140  -0.430        0
   571  3035-48-337    -2   25   35   0.140  -0.390        0
   572  3035-56-23     -2   25   35   0.140  -0.390        0
   573  3035-60-319    -2   25   35   0.140  -0.390        0
   574  3035-66-18     -2   25   35   0.140  -0.390        0
   575  3035-71-11     -2   25   35   0.140  -0.390        0
   576  3035-71-365    -2   25   35   0.140  -0.390        0
   577  3007-12-76     -3   26   35   0.090  -0.460        0
   578  3007-48-337    -2   26   35   0.090  -0.460        0
   579  3007-56-23     -2   26   35   0.090  -0.460        0
   580  3007-61-55      3   26   35   0.090  -0.460        0
   581  3007-66-18      3   26   35   0.090  -0.460        0
   582  3032-10-32     -3   25   36   0.220   0.260        0
   583  3032-48-337    -3   25   36   0.220   0.260        0
   584  3032-56-23     -3   25   36   0.220   0.260        0
   585  3032-61-55     -3   25   36   0.220   0.260        0
   586  3032-66-27     -3   25   36   0.220   0.260        0
   587  3006-56-23      2   26   36   0.100  -0.390        0
   588  3006-61-55      2   26   36   0.100  -0.390        0
   589  3006-66-18      2   26   36   0.100  -0.390        0
   590  3005-10-60      2   26   36   0.100   0.490        0
   591  3005-48-337     2   26   36   0.100   0.490        0
   592  3005-56-23      2   26   36   0.100   0.490        0
   593  3005-61-55      2   26   36   0.100   0.490        0
   594  3005-66-18      2   26   36   0.100   0.490        0
   595  3002-56-23      1   26   37   0.140   0.140        0
   596  3002-61-55      1   26   37   0.140   0.140        0
   597  3002-66-19      1   26   37   0.140   0.140        0
   598  3182-48-337     2   18   29   0.200  -0.380        0
   599  3182-56-19      2   18   29   0.200  -0.380        0
   600  3182-61-60      2   18   29   0.200  -0.380        0
   601  3182-66-27      2   18   29   0.200  -0.380        0
   602  3155-8-1        2   20   29   0.190  -0.390        0
   603  3155-48-337     2   20   29   0.190  -0.390        0
   604  3155-56-19      2   20   29   0.190  -0.390        0
   605  3155-66-24      2   20   29   0.190  -0.390        0
   606  2695-43-60      2   26   26  -0.340   0.490        0
   607  2695-55-354     2   26   26  -0.340   0.490        0
   608  2695-61-7       2   26   26  -0.340   0.490        0
   609  2695-65-361     2   26   26  -0.340   0.490        0
   610  2695-71-5       2   26   26  -0.340   0.490        0
   611  2695-71-365     2   26   26  -0.340   0.490        0
   612  3037-48-364     2   25   39   0.140  -0.270        0
   613  3009-56-25      2   26   40   0.030   0.450        0
   614  3009-61-55      2   26   40   0.030   0.450        0
   615  3001-56-25      2   26   41   0.140  -0.460        0
   616  3001-61-55      2   26   41   0.140  -0.460        0
   617  3004-17-1       3   26   46   0.110   0.130        0
   618  3004-22-1       3   26   46   0.110   0.130        0
   619  3004-27-32      3   26   46   0.110   0.130        0
   620  3004-37-36      3   26   46   0.110   0.130        0
   621  3004-66-24      3   26   46   0.110   0.130        0
   622  3004-71-57      3   26   46   0.110   0.130        0
   623  3010-48-334     2   26   51   0.000   0.120        0
   624  3010-56-27      2   26   51   0.000   0.120        0
   625  3039-42-364     3   25   56   0.080  -0.010        0
   626  3039-48-335     3   25   56   0.080  -0.010        0
   627  3039-56-25      3   25   56   0.080  -0.010        0
   628  3019-31-297     2   26   55  -0.340   0.150        0
   629  2997-36-32      2   26   56   0.230  -0.360        0
   630  2997-43-41      2   26   56   0.230  -0.360        0
   631  2997-48-334     2   26   56   0.230  -0.360        0
   632  3012-31-339     2   26   57  -0.080  -0.130        0
   633  3016-8-222      2   26   58  -0.270  -0.350        0
   634  3016-11-53      2   26   58  -0.270  -0.350        0
   635  3014-42-365     2   26   58  -0.110  -0.350        0
   636  3014-48-334     2   26   58  -0.110  -0.350        0
   637  3014-56-24      2   26   58  -0.110  -0.350        0
   638  3014-61-59      2   26   58  -0.110  -0.350        0
   639  3014-66-25      2   26   58  -0.110  -0.350        0
   640  3014-71-54      2   26   58  -0.110  -0.350        0
   641  3013-43-6       3   26   58  -0.040   0.300        0
   642  3013-48-335     3   26   58  -0.040   0.300        0
   643  3013-56-26      3   26   58  -0.040   0.300        0
   644  3013-66-28      3   26   58  -0.040   0.300        0
   645  3041-66-33      3   25   62   0.040   0.220        0
   646  3041-71-61      3   25   62   0.040   0.220        0
   647  3055-11-56      3   24   61   0.320  -0.330        0
   648  3055-43-6       3   24   61   0.320  -0.330        0
   649  3055-48-335     3   24   61   0.320  -0.330        0
   650  3055-56-19      3   24   61   0.320  -0.330        0
   651  3251-48-334     2   15   71  -0.290   0.240        0
   652  3246-56-26      2   15   71  -0.140   0.240        0
   653  3248-16-116     2   15   71  -0.260   0.240        0
   654  3248-21-116     2   15   71  -0.260   0.240        0
   655  3248-26-125     2   15   71  -0.260   0.240        0
   656  3248-31-111     2   15   71  -0.260   0.240        0
   657  3248-37-36      2   15   71  -0.260   0.240        0
   658  3248-43-81      2   15   71  -0.260   0.240        0
   659  3248-48-334     2   15   71  -0.260   0.240        0
   660  3248-56-26      2   15   71  -0.260   0.240        0
   661  3248-71-61      2   15   71  -0.260   0.240        0
   662  3242-56-26     -2   15   71  -0.030  -0.060        0
   663  3241-61-61      2   15   71   0.200   0.400        0
   664  3241-66-18      2   15   71   0.200   0.400        0
   665  3241-71-61      2   15   71   0.200   0.400        0
   666  3235-71-64      2   15   71   0.390  -0.090        0
   667  3221-66-33      2   16   69  -0.180   0.230        0
   668  3262-42-335     2   14   68  -0.060  -0.490        0
   669  3262-49-8       2   14   68  -0.060  -0.490        0
   670  3262-55-342     2   14   68  -0.060  -0.490        0
   671  3262-61-35      2   14   68  -0.060  -0.490        0
   672  3262-66-33      2   14   68  -0.060  -0.490        0
   673  3262-71-323     2   14   68  -0.060  -0.490        0
   674  3256-27-125    -2   15   67  -0.440  -0.300        0
   675  3256-37-36     -2   15   67  -0.440  -0.300        0
   676  3256-48-356    -2   15   67  -0.440  -0.300        0
   677  3256-55-342    -2   15   67  -0.440  -0.300        0
   678  3256-66-33     -2   15   67  -0.440  -0.300        0
   679  3256-71-323    -2   15   67  -0.440  -0.300        0
   680  3252-43-81      2   15   67  -0.330  -0.470        0
   681  3252-48-336     2   15   67  -0.330  -0.470        0
   682  3252-56-27      2   15   67  -0.330  -0.470        0
   683  3252-60-323     2   15   67  -0.330  -0.470        0
   684  3252-65-299     2   15   67  -0.330  -0.470        0
   685  3252-71-365     2   15   67  -0.330  -0.470        0
   686  3253-55-342     3   15   67  -0.410  -0.300        0
   687  3253-60-335     3   15   67  -0.410  -0.300        0
   688  3253-66-34      3   15   67  -0.410  -0.300        0
   689  3253-71-323     3   15   67  -0.410  -0.300        0
   690  3263-16-299    -2   16   67  -0.100  -0.240        0
   691  3263-26-127    -2   16   67  -0.100  -0.240        0
   692  3263-43-60     -2   16   67  -0.100  -0.240        0
   693  3263-48-356    -2   16   67  -0.100  -0.240        0
   694  3263-56-24     -2   16   67  -0.100  -0.240        0
   695  3263-66-33     -2   16   67  -0.100  -0.240        0
   696  3263-71-365    -2   16   67  -0.100  -0.240        0
   697  3224-56-27      2   16   68  -0.370   0.380        0
   698  3209-33-314     2   17   68  -0.380  -0.430        0
   699  3210-43-81     -2   17   67  -0.300  -0.040        0
   700  3210-48-336    -2   17   67  -0.300  -0.040        0
   701  3210-56-26     -2   17   67  -0.300  -0.040        0
   702  3195-33-32     -2   18   67  -0.420  -0.500        0
   703  3180-34-152    -2   18   67   0.080   0.310        0
   704  3184-66-28      2   18   68   0.080  -0.230        0
   705  3184-71-62      2   18   68   0.080  -0.230        0
   706  3186-66-28      2   18   68   0.040  -0.230        0
   707  3186-71-60      2   18   68   0.040  -0.230        0
   708  3183-66-31      2   18   68   0.080   0.450        0
   709  3207-43-7       2   17   70  -0.270   0.430        0
   710  3207-48-334     2   17   70  -0.270   0.430        0
   711  3207-56-26      2   17   70  -0.270   0.430        0
   712  3190-43-7       2   18   69  -0.120  -0.390        0
   713  3190-48-336     2   18   69  -0.120  -0.390        0
   714  3190-56-25      2   18   69  -0.120  -0.390        0
   715  3194-71-62      2   18   70  -0.430   0.200        0
   716  3192-66-34      2   18   70  -0.380   0.170        0
   717  3192-71-60      2   18   70  -0.380   0.170        0
   718  3187-43-7      -2   18   70   0.000  -0.160        0
   719  3187-48-334    -2   18   70   0.000  -0.160        0
   720  3203-71-62      2   17   71  -0.040  -0.480        0
   721  3165-71-62      2   19   69   0.480   0.360        0
   722  3148-43-7      -2   20   69   0.260  -0.420        0
   723  3157-71-62      2   20   69  -0.050   0.340        0
   724  3152-71-62      2   20   69   0.220   0.290        0
   725  3169-43-8       3   19   67   0.110   0.440        0
   726  3169-48-336     3   19   67   0.110   0.440        0
   727  3169-66-34      3   19   67   0.110   0.440        0
   728  3169-71-61      2   19   67   0.110   0.440        0
   729  3168-43-7      -2   19   66  -0.310   0.240        0
   730  3168-56-26     -2   19   66  -0.310   0.240        0
   731  3168-66-34     -2   19   66  -0.310   0.240        0
   732  3156-27-289    -2   20   67  -0.120   0.380        0
   733  3144-43-7      -2   20   67   0.330  -0.070        0
   734  3144-56-25     -2   20   67   0.330  -0.070        0
   735  3144-66-34     -2   20   67   0.330  -0.070        0
   736  3144-71-60     -2   20   67   0.330  -0.070        0
   737  3110-43-5       2   22   67  -0.290  -0.140        0
   738  3110-48-335     2   22   67  -0.290  -0.140        0
   739  3136-43-7      -2   20   69   0.490   0.330        0
   740  3136-48-334    -2   20   69   0.490   0.330        0
   741  3136-56-26     -2   20   69   0.490   0.330        0
   742  3136-66-35     -2   20   69   0.490   0.330        0
   743  3136-71-61     -2   20   69   0.490   0.330        0
   744  3093-5-82       2   23   68  -0.290  -0.200        0
   745  3093-6-97       2   23   68  -0.290  -0.200        0
   746  3093-16-133     2   23   68  -0.290  -0.200        0
   747  3093-26-124     2   23   68  -0.290  -0.200        0
   748  3093-37-37      2   23   68  -0.290  -0.200        0
   749  3093-43-7       2   23   68  -0.290  -0.200        0
   750  3094-48-337    -2   20   64   0.370   0.300        0
   751  3094-66-33     -2   20   64   0.370   0.300        0
   752  3094-71-61     -2   20   64   0.370   0.300        0
   753  3057-48-337     2   24   63   0.240   0.000        0
   754  3057-56-25      2   24   63   0.240   0.000        0
   755  3011-48-337    -2   26   63  -0.110   0.040        0
   756  3011-66-33     -2   26   63  -0.110   0.040        0
   757  3011-71-61     -2   26   63  -0.110   0.040        0
   758  3026-48-337    -2   25   64   0.460  -0.250        0
   759  3026-56-25     -2   25   64   0.460  -0.250        0
   760  2999-16-361    -2   26   65   0.270  -0.410        0
   761  2999-22-31     -2   26   65   0.270  -0.410        0
   762  2999-27-11     -2   26   65   0.270  -0.410        0
   763  2999-31-351    -2   26   65   0.270  -0.410        0
   764  2999-37-343    -2   26   65   0.270  -0.410        0
   765  2999-56-25     -2   26   65   0.270  -0.410        0
   766  2999-66-33     -2   26   65   0.270  -0.410        0
   767  2999-71-61     -2   26   65   0.270  -0.410        0
   768  2994-43-5       2   26   65   0.270  -0.050        0
   769  2994-56-25      2   26   65   0.270  -0.050        0
   770  3029-48-336     3   25   67   0.420  -0.460        0
   771  3029-56-26      3   25   67   0.420  -0.460        0
   772  3029-66-33      3   25   67   0.420  -0.460        0
   773  3008-48-336     2   26   69   0.030  -0.250        0
   774  3008-56-26      2   26   69   0.030  -0.250        0
   775  2963-1-107      2   28   22  -0.140   0.270        0
   776  2948-17-4       2   28   22   0.360  -0.120        0
   777  2982-48-348     3   27   20   0.470  -0.300        0
   778  2982-55-354     3   27   20   0.470  -0.300        0
   779  2982-61-7       3   27   20   0.470  -0.300        0
   780  2982-66-55      3   27   20   0.470  -0.300        0
   781  2982-71-355     3   27   20   0.470  -0.300        0
   782  2968-71-365     2   28   20  -0.330   0.290        0
   783  2951-42-351     2   28   20   0.470  -0.430        0
   784  2951-48-348     2   28   20   0.470  -0.430        0
   785  2951-55-354     2   28   20   0.470  -0.430        0
   786  2951-61-5       2   28   20   0.470  -0.430        0
   787  2951-66-20      2   28   20   0.470  -0.430        0
   788  2951-71-355     2   28   20   0.470  -0.430        0
   789  2950-12-335     3   28   20   0.470   0.060        0
   790  2950-55-354     3   28   20   0.470   0.060        0
   791  2945-1-107      2   29   18  -0.270   0.470        0
   792  2945-7-3        2   29   18  -0.270   0.470        0
   793  2945-10-320     2   29   18  -0.270   0.470        0
   794  2902-42-351     2   30   20   0.460  -0.180        0
   795  2902-48-348     2   30   20   0.460  -0.180        0
   796  2902-55-354     2   30   20   0.460  -0.180        0
   797  2902-61-5       2   30   20   0.460  -0.180        0
   798  2902-66-20      2   30   20   0.460  -0.180        0
   799  2902-71-355     2   30   20   0.460  -0.180        0
   800  2906-12-332     3   30   20   0.420   0.380        0
   801  2906-17-4      -2   30   20   0.420   0.380        0
   802  2906-22-34     -2   30   20   0.420   0.380        0
   803  2906-32-85      3   30   20   0.420   0.380        0
   804  2906-37-33     -2   30   20   0.420   0.380        0
   805  2906-48-365    -2   30   20   0.420   0.380        0
   806  2906-55-354    -2   30   20   0.420   0.380        0
   807  2906-61-5      -2   30   20   0.420   0.380        0
   808  2906-66-20     -2   30   20   0.420   0.380        0
   809  2906-71-365    -2   30   20   0.420   0.380        0
   810  2922-16-313     2   29   23   0.430  -0.120        0
   811  2922-22-34      2   29   23   0.430  -0.120        0
   812  2922-27-13      2   29   23   0.430  -0.120        0
   813  2559-17-6      -3   29   25   0.480  -0.240        0
   814  2559-42-351    -2   29   25   0.480  -0.240        0
   815  2559-48-348    -2   29   25   0.480  -0.240        0
   816  2559-56-3      -2   29   25   0.480  -0.240        0
   817  2559-66-20     -3   29   25   0.480  -0.240        0
   818  2559-71-365    -3   29   25   0.480  -0.240        0
   819  2920-1-109      2   29   19   0.500  -0.110        0
   820  2901-42-351     2   30   25   0.400  -0.080        0
   821  2901-55-355     2   30   25   0.400  -0.080        0
   822  2901-61-5       2   30   25   0.400  -0.080        0
   823  2901-66-20      2   30   25   0.400  -0.080        0
   824  2901-71-365     2   30   25   0.400  -0.080        0
   825  2905-17-6      -2   30   25   0.430  -0.080        0
   826  2905-22-34     -2   30   25   0.430  -0.080        0
   827  2905-42-351     2   30   25   0.430  -0.080        0
   828  2905-71-50     -2   30   25   0.430  -0.080        0
   829  2905-71-365    -2   30   25   0.430  -0.080        0
   830  2907-42-351     3   30   25   0.210  -0.080        0
   831  2907-48-348     3   30   25   0.210  -0.080        0
   832  2907-55-355     3   30   25   0.210  -0.080        0
   833  2907-61-5       3   30   25   0.210  -0.080        0
   834  2907-66-20      3   30   25   0.210  -0.080        0
   835  2907-71-365     2   30   25   0.210  -0.080        0
   836  2900-17-6      -2   30   26   0.440  -0.140        0
   837  2900-56-20      2   30   26   0.440  -0.140        0
   838  2900-66-26      2   30   26   0.440  -0.140        0
   839  2874-3-290      2   31   23   0.420  -0.390        0
   840  2838-3-1        2   32   23   0.340  -0.390        0
   841  2809-16-354    -2   33   18   0.480   0.160        0
   842  2788-1-105      2   34   18   0.240   0.160        0
   843  2788-7-3        2   34   18   0.240   0.160        0
   844  2788-11-311     2   34   18   0.240   0.160        0
   845  2780-12-173     3   34   18   0.470   0.410        0
   846  2780-16-354     3   34   18   0.470   0.410        0
   847  2780-37-33      3   34   18   0.470   0.410        0
   848  2779-16-354    -2   34   20   0.480   0.040        0
   849  2779-22-34     -2   34   20   0.480   0.040        0
   850  2777-16-354     2   34   24   0.410  -0.030        0
   851  2787-16-335    -2   34   24   0.410   0.000        0
   852  2787-22-34      2   34   24   0.410   0.000        0
   853  2787-34-351     2   34   24   0.410   0.000        0
   854  2787-56-25      2   34   24   0.410   0.000        0
   855  2787-61-52      2   34   24   0.410   0.000        0
   856  2787-66-25      2   34   24   0.410   0.000        0
   857  2783-17-6      -2   34   25   0.450   0.400        0
   858  2783-56-25      2   34   25   0.450   0.400        0
   859  2783-66-20     -2   34   25   0.450   0.400        0
   860  2783-71-365    -2   34   25   0.450   0.400        0
   861  2790-66-20     -2   34   25   0.450   0.300        0
   862  2790-71-365    -2   34   25   0.450   0.300        0
   863  2745-16-354    -2   35   24   0.100   0.390        0
   864  2745-66-20     -2   35   24   0.100   0.390        0
   865  2745-71-365    -2   35   24   0.100   0.390        0
   866  2775-1-86       2   35   23  -0.480  -0.070        0
   867  2775-7-68       2   35   23  -0.480  -0.070        0
   868  2731-48-348    -2   35   24   0.480   0.360        0
   869  2731-55-354    -2   35   24   0.480   0.360        0
   870  2731-61-5      -2   35   24   0.480   0.360        0
   871  2731-66-20     -2   35   24   0.480   0.360        0
   872  2731-71-365    -2   35   24   0.480   0.360        0
   873  2771-22-21      2   35   21  -0.410  -0.440        0
   874  2718-17-6      -2   36   22  -0.140   0.280        0
   875  2718-27-13     -2   36   22  -0.140   0.280        0
   876  2769-56-26      3   34   16   0.460   0.040        0
   877  2769-61-55      3   34   16   0.460   0.040        0
   878  2769-66-26      3   34   16   0.460   0.040        0
   879  2758-7-344      3   35   15  -0.120  -0.420        0
   880  2675-48-348     3   37   15   0.100   0.130        0
   881  2675-61-4       3   37   15   0.100   0.130        0
   882  2675-66-20      3   37   15   0.100   0.130        0
   883  2675-71-365     3   37   15   0.100   0.130        0
   884  2637-42-351     3   38   16   0.370  -0.200        0
   885  2637-48-349     3   38   16   0.370  -0.200        0
   886  2637-55-355     3   38   16   0.370  -0.200        0
   887  2637-61-4       3   38   16   0.370  -0.200        0
   888  2637-66-51      3   38   16   0.370  -0.200        0
   889  2637-71-365     3   38   16   0.370  -0.200        0
   890  2641-16-355    -2   38   18   0.450   0.300        0
   891  2641-56-25     -2   38   18   0.450   0.300        0
   892  2641-61-53     -2   38   18   0.450   0.300        0
   893  2641-66-26     -2   38   18   0.450   0.300        0
   894  2640-42-351     3   38   19   0.420   0.050        0
   895  2640-48-348     3   38   19   0.420   0.050        0
   896  2640-55-355     3   38   19   0.420   0.050        0
   897  2640-61-4       3   38   19   0.420   0.050        0
   898  2640-66-20      3   38   19   0.420   0.050        0
   899  2640-71-4       3   38   19   0.420   0.050        0
   900  2640-71-365     3   38   19   0.420   0.050        0
   901  2636-42-351     3   38   19   0.380   0.150        0
   902  2636-48-348     3   38   19   0.380   0.150        0
   903  2636-55-355     3   38   19   0.380   0.150        0
   904  2636-61-4       3   38   19   0.380   0.150        0
   905  2636-66-20      3   38   19   0.380   0.150        0
   906  2636-71-5       3   38   19   0.380   0.150        0
   907  2636-71-365     3   38   19   0.380   0.150        0
   908  2639-12-178    -2   38   20   0.380   0.350        0
   909  2639-16-354    -2   38   20   0.380   0.350        0
   910  2639-42-351    -2   38   20   0.380   0.350        0
   911  2639-48-348    -2   38   20   0.380   0.350        0
   912  2639-71-50     -2   38   20   0.380   0.350        0
   913  2639-71-365    -2   38   20   0.380   0.350        0
   914  2654-56-25      3   38   21   0.150  -0.260        0
   915  2654-61-52      3   38   21   0.150  -0.260        0
   916  2978-1-364      1   27   38   0.130  -0.180        0
   917  2978-4-93       1   27   38   0.130  -0.180        0
   918  2964-48-300     3   28   39  -0.220  -0.370        0
   919  2964-55-321     3   28   39  -0.220  -0.370        0
   920  2964-60-313     3   28   39  -0.220  -0.370        0
   921  2964-65-364     3   28   39  -0.220  -0.370        0
   922  2964-71-349     3   28   39  -0.220  -0.370        0
   923  2965-71-350     2   28   39  -0.220  -0.370        0
   924  2985-17-5       1   27   31  -0.450   0.460        0
   925  2985-56-24      2   27   31  -0.450   0.460        0
   926  2985-61-56      2   27   31  -0.450   0.460        0
   927  2985-66-18      2   27   31  -0.450   0.460        0
   928  2913-56-23      2   30   28   0.210  -0.480        0
   929  2921-1-86       2   29   29   0.410  -0.080        0
   930  2921-7-3        2   29   29   0.410  -0.080        0
   931  2921-10-320     2   29   29   0.410  -0.080        0
   932  2921-12-361     2   29   29   0.410  -0.080        0
   933  2938-56-26      2   29   33   0.150  -0.410        0
   934  2938-61-59      2   29   33   0.150  -0.410        0
   935  2938-66-20      2   29   33   0.150  -0.410        0
   936  2935-22-34      2   29   32   0.230  -0.360        0
   937  2935-27-20      2   29   32   0.230  -0.360        0
   938  2935-56-24      2   29   32   0.230  -0.360        0
   939  2935-61-56      2   29   32   0.230  -0.360        0
   940  2935-66-19      2   29   32   0.230  -0.360        0
   941  2943-48-275     3   29   34  -0.230   0.440        0
   942  2944-48-275     2   29   34  -0.230   0.440        0
   943  2936-56-24     -2   29   38   0.120   0.490        0
   944  2936-61-55     -2   29   38   0.120   0.490        0
   945  2937-17-5      -2   29   37   0.120   0.130        0
   946  2937-22-34     -2   29   37   0.120   0.130        0
   947  2937-32-85     -2   29   37   0.120   0.130        0
   948  2937-42-349    -2   29   37   0.120   0.130        0
   949  2937-48-341    -2   29   37   0.120   0.130        0
   950  2937-56-24     -2   29   37   0.120   0.130        0
   951  2937-65-302    -2   29   37   0.120   0.130        0
   952  2915-12-6      -2   30   39  -0.380  -0.380        0
   953  2915-17-5      -2   30   39  -0.380  -0.380        0
   954  2915-56-24     -2   30   39  -0.380  -0.380        0
   955  2915-61-56     -2   30   39  -0.380  -0.380        0
   956  2915-66-19     -2   30   39  -0.380  -0.380        0
   957  2863-48-275     3   32   35  -0.130  -0.240        0
   958  2864-48-275     2   32   35  -0.130  -0.240        0
   959  2885-17-5       2   31   34  -0.120   0.110        0
   960  2885-56-24      2   31   34  -0.120   0.110        0
   961  2885-61-56      2   31   34  -0.120   0.110        0
   962  2867-17-6       2   32   33  -0.400  -0.390        0
   963  2867-21-335     2   32   33  -0.400  -0.390        0
   964  2867-56-24      2   32   33  -0.400  -0.390        0
   965  2867-61-56      2   32   33  -0.400  -0.390        0
   966  2867-66-19      2   32   33  -0.400  -0.390        0
   967  2887-56-24     -2   31   30   0.100  -0.110        0
   968  2887-66-19     -2   31   30   0.100  -0.110        0
   969  2886-17-6       2   31   31   0.100  -0.430        0
   970  2886-56-24      2   31   31   0.100  -0.430        0
   971  2886-61-56      2   31   31   0.100  -0.430        0
   972  2886-66-27      2   31   31   0.100  -0.430        0
   973  2850-1-86       1   32   29   0.130  -0.410        0
   974  2850-7-4        1   32   29   0.130  -0.410        0
   975  2850-12-361     1   32   29   0.130  -0.410        0
   976  2837-12-284    -2   32   31   0.210  -0.370        0
   977  2837-16-354     2   32   31   0.210  -0.370        0
   978  2837-22-34      2   32   31   0.210  -0.370        0
   979  2837-32-85      2   32   31   0.210  -0.370        0
   980  2837-37-34      2   32   31   0.210  -0.370        0
   981  2837-42-349     2   32   31   0.210  -0.370        0
   982  2837-48-341     2   32   31   0.210  -0.370        0
   983  2837-56-24      2   32   31   0.210  -0.370        0
   984  2837-60-319     2   32   31   0.210  -0.370        0
   985  2837-65-298    -2   32   31   0.210  -0.370        0
   986  2837-71-11     -2   32   31   0.210  -0.370        0
   987  2837-71-365    -2   32   31   0.210  -0.370        0
   988  2818-17-6       2   33   31   0.170  -0.470        0
   989  2818-56-24      2   33   31   0.170  -0.470        0
   990  2818-61-52      2   33   31   0.170  -0.470        0
   991  2818-66-25      2   33   31   0.170  -0.470        0
   992  2800-48-348     2   34   31  -0.070  -0.470        0
   993  2800-55-355     2   34   31  -0.070  -0.470        0
   994  2800-61-7       2   34   31  -0.070  -0.470        0
   995  2800-65-341     2   34   31  -0.070  -0.470        0
   996  2800-71-50      2   34   31  -0.070  -0.470        0
   997  2800-71-365     2   34   31  -0.070  -0.470        0
   998  2786-56-24      2   34   31   0.270  -0.440        0
   999  2786-61-52      2   34   31   0.270  -0.440        0
  1000  2786-66-25      2   34   31   0.270  -0.440        0
  1001  2770-1-86       2   35   31  -0.380  -0.440        0
  1002  2770-7-4        2   35   31  -0.380  -0.440        0
  1003  2770-12-361     2   35   31  -0.380  -0.440        0
  1004  2744-56-24      2   35   30   0.150  -0.190        0
  1005  2740-56-24      2   35   30   0.190   0.010        0
  1006  2741-17-6       2   35   30   0.190  -0.410        0
  1007  2694-1-86       2   36   31   0.460  -0.180        0
  1008  2694-5-67       2   36   31   0.460  -0.180        0
  1009  2643-2-60       2   38   33   0.300  -0.170        0
  1010  2643-6-284      2   38   33   0.300  -0.170        0
  1011  2643-11-275     2   38   33   0.300  -0.170        0
  1012  2933-56-23      2   29   28   0.180  -0.410        0
  1013  2851-16-354     2   32   28   0.010  -0.450        0
  1014  2851-65-341     2   32   28   0.010  -0.450        0
  1015  2851-71-50      2   32   28   0.010  -0.450        0
  1016  2851-71-365     2   32   28   0.010  -0.450        0
  1017  2854-65-341     2   32   28   0.160   0.230        0
  1018  2854-71-50      2   32   28   0.160   0.230        0
  1019  2854-71-365     2   32   28   0.160   0.230        0
  1020  2796-61-52      2   34   28   0.190   0.420        0
  1021  2796-66-33      2   34   28   0.190   0.420        0
  1022  2712-42-351     2   36   28   0.180  -0.330        0
  1023  2712-48-348     2   36   28   0.180  -0.330        0
  1024  2712-56-27      2   36   28   0.180  -0.330        0
  1025  2712-61-7       2   36   28   0.180  -0.330        0
  1026  2712-66-55      2   36   28   0.180  -0.330        0
  1027  2712-71-365     2   36   28   0.180  -0.330        0
  1028  2709-55-355     3   36   28   0.110   0.090        0
  1029  2709-61-7       3   36   28   0.110   0.090        0
  1030  2709-65-341     3   36   28   0.110   0.090        0
  1031  2709-71-365     3   36   28   0.110   0.090        0
  1032  2702-42-351     2   36   28   0.140   0.090        0
  1033  2702-48-348     2   36   28   0.140   0.090        0
  1034  2702-56-27      2   36   28   0.140   0.090        0
  1035  2702-61-7       2   36   28   0.140   0.090        0
  1036  2702-65-341     2   36   28   0.140   0.090        0
  1037  2702-71-365     2   36   28   0.140   0.090        0
  1038  2711-39-335     2   36   29   0.150  -0.460        0
  1039  2711-56-26      2   36   29   0.150  -0.460        0
  1040  2711-61-7       2   36   29   0.150  -0.460        0
  1041  2711-65-341     2   36   29   0.150  -0.460        0
  1042  2711-71-365     2   36   29   0.150  -0.460        0
  1043  2713-42-351     2   36   29  -0.010  -0.360        0
  1044  2713-56-26      2   36   29  -0.010  -0.360        0
  1045  2713-61-7       2   36   29  -0.010  -0.360        0
  1046  2713-65-341     2   36   29  -0.010  -0.360        0
  1047  2713-71-365     2   36   29  -0.010  -0.360        0
  1048  2682-56-23      2   37   32  -0.230   0.340        0
  1049  2682-61-53      2   37   32  -0.230   0.340        0
  1050  2682-66-28      2   37   32  -0.230   0.340        0
  1051  2866-12-332     2   32   26  -0.380   0.440        0
  1052  2866-17-6       2   32   26  -0.380   0.440        0
  1053  2998-43-6       2   26   49   0.230   0.140        0
  1054  3416-56-26      2   27   42  -0.090  -0.030        0
  1055  3416-61-55      2   27   42  -0.090  -0.030        0
  1056  3416-66-19      2   27   42  -0.090  -0.030        0
  1057  2986-8-305      1   27   41  -0.400  -0.290        0
  1058  2960-1-365      1   28   41   0.060  -0.260        0
  1059  2961-56-25     -2   28   42   0.210   0.070        0
  1060  2961-61-59     -2   28   42   0.210   0.070        0
  1061  2961-66-19     -2   28   42   0.210   0.070        0
  1062  2957-56-25     -2   28   42   0.210   0.490        0
  1063  2957-61-59     -2   28   42   0.210   0.490        0
  1064  2988-1-51       1   27   40  -0.440  -0.500        0
  1065  2984-8-213      1   27   40  -0.210  -0.500        0
  1066  2971-7-60       1   27   40   0.440   0.480        0
  1067  2969-56-25     -2   27   40   0.440   0.440        0
  1068  2969-61-55     -2   27   40   0.440   0.440        0
  1069  2969-66-19     -2   27   40   0.440   0.440        0
  1070  2976-56-25      1   27   40   0.370   0.120        0
  1071  2976-61-55      1   27   40   0.370   0.120        0
  1072  2976-66-19      1   27   40   0.370   0.120        0
  1073  2972-56-25      2   28   40  -0.480  -0.010        0
  1074  2972-66-19      2   28   40  -0.480  -0.010        0
  1075  2919-21-335     2   30   39  -0.340  -0.310        0
  1076  2946-56-25     -2   29   42  -0.410   0.070        0
  1077  2946-66-19     -2   29   42  -0.410   0.070        0
  1078  2927-22-17     -2   29   42   0.090  -0.390        0
  1079  2927-27-32     -2   29   42   0.090  -0.390        0
  1080  2955-8-276     -2   28   41   0.250  -0.390        0
  1081  2955-12-40     -2   28   41   0.250  -0.390        0
  1082  2955-17-1      -2   28   41   0.250  -0.390        0
  1083  2955-27-32     -2   28   41   0.250  -0.390        0
  1084  2955-32-12     -2   28   41   0.250  -0.390        0
  1085  2955-37-1      -2   28   41   0.250  -0.390        0
  1086  2926-56-26      1   29   42   0.440   0.130        0
  1087  2926-61-59      1   29   42   0.440   0.130        0
  1088  2942-1-365      1   29   43  -0.210   0.230        0
  1089  2916-56-25      1   30   43  -0.220  -0.290        0
  1090  2916-61-59      1   30   43  -0.220  -0.290        0
  1091  2916-66-20      1   30   43  -0.220  -0.290        0
  1092  2941-42-364     2   29   47  -0.210  -0.160        0
  1093  2941-48-335     2   29   47  -0.210  -0.160        0
  1094  2941-56-23      2   29   47  -0.210  -0.160        0
  1095  2941-61-59      2   29   47  -0.210  -0.160        0
  1096  2941-66-26      2   29   47  -0.210  -0.160        0
  1097  2941-71-54      2   29   47  -0.210  -0.160        0
  1098  3185-34-152     2   30   48  -0.440   0.460        0
  1099  2925-42-364     2   29   48   0.440  -0.160        0
  1100  2925-48-335     2   29   48   0.440  -0.160        0
  1101  2925-56-23      2   29   48   0.440  -0.160        0
  1102  2925-66-26      2   29   48   0.440  -0.160        0
  1103  2925-71-54      2   29   48   0.440  -0.160        0
  1104  2954-42-363     2   28   50   0.410  -0.370        0
  1105  2954-56-23      2   28   50   0.410  -0.370        0
  1106  2954-61-59      2   28   50   0.410  -0.370        0
  1107  2954-66-27      2   28   50   0.410  -0.370        0
  1108  2889-42-364     2   31   49  -0.180  -0.310        0
  1109  2889-48-336     2   31   49  -0.180  -0.310        0
  1110  2889-56-24      2   31   49  -0.180  -0.310        0
  1111  2880-22-18      2   31   50   0.240  -0.210        0
  1112  2880-27-32      2   31   50   0.240  -0.210        0
  1113  2880-38-1       2   31   50   0.240  -0.210        0
  1114  2880-42-363     2   31   50   0.240  -0.210        0
  1115  2893-1-274      2   31   48  -0.330   0.490        0
  1116  2893-4-279      2   31   48  -0.330   0.490        0
  1117  2893-5-285      2   31   48  -0.330   0.490        0
  1118  2893-12-46      2   31   48  -0.330   0.490        0
  1119  2893-17-19      2   31   48  -0.330   0.490        0
  1120  2893-22-1       2   31   48  -0.330   0.490        0
  1121  2893-27-32      2   31   48  -0.330   0.490        0
  1122  2893-32-14      2   31   48  -0.330   0.490        0
  1123  2893-38-1       2   31   48  -0.330   0.490        0
  1124  2896-42-363     2   31   47  -0.370   0.360        0
  1125  2853-42-364     2   32   49   0.010  -0.440        0
  1126  2853-48-336     2   32   49   0.010  -0.440        0
  1127  2853-56-24      2   32   49   0.010  -0.440        0
  1128  2853-61-59      2   32   49   0.010  -0.440        0
  1129  2853-66-27      2   32   49   0.010  -0.440        0
  1130  2853-71-55      2   32   49   0.010  -0.440        0
  1131  2858-42-363     1   32   46   0.080  -0.430        0
  1132  2858-48-336     1   32   46   0.080  -0.430        0
  1133  2858-56-24      1   32   46   0.080  -0.430        0
  1134  2858-61-59      1   32   46   0.080  -0.430        0
  1135  2858-66-27      1   32   46   0.080  -0.430        0
  1136  2858-71-62      1   32   46   0.080  -0.430        0
  1137  2904-2-1       -2   30   43   0.360   0.460        0
  1138  2892-1-360     -2   31   43  -0.260   0.460        0
  1139  2892-7-65      -2   31   43  -0.260   0.460        0
  1140  2892-11-334    -2   31   43  -0.260   0.460        0
  1141  2892-16-318    -2   31   43  -0.260   0.460        0
  1142  2892-22-34     -2   31   43  -0.260   0.460        0
  1143  2892-27-32     -2   31   43  -0.260   0.460        0
  1144  2892-31-351    -2   31   43  -0.260   0.460        0
  1145  2892-36-50     -2   31   43  -0.260   0.460        0
  1146  2909-56-25     -2   30   43   0.240   0.070        0
  1147  2909-61-59     -2   30   43   0.240   0.070        0
  1148  2909-66-19     -2   30   43   0.240   0.070        0
  1149  2911-56-25     -2   30   43   0.200  -0.120        0
  1150  2911-61-59     -2   30   43   0.200  -0.120        0
  1151  2911-66-19     -2   30   43   0.200  -0.120        0
  1152  2884-66-32      2   31   43   0.160   0.330        0
  1153  2865-8-91       2   32   43  -0.340  -0.350        0
  1154  2865-48-342     2   32   43  -0.340  -0.350        0
  1155  2848-66-32     -2   32   45   0.150  -0.410        0
  1156  2881-48-342     3   31   43   0.200  -0.420        0
  1157  2859-8-121      2   32   42   0.040   0.290        0
  1158  2871-56-24      2   32   39  -0.310  -0.280        0
  1159  2871-61-59      2   32   39  -0.310  -0.280        0
  1160  2871-66-27      2   32   39  -0.310  -0.280        0
  1161  2811-17-6       2   32   39   0.150  -0.380        0
  1162  2811-22-34      2   32   39   0.150  -0.380        0
  1163  2811-56-24      2   32   39   0.150  -0.380        0
  1164  2811-61-59      2   32   39   0.150  -0.380        0
  1165  2834-48-342     2   32   43   0.460  -0.420        0
  1166  2835-48-342     3   32   43   0.500  -0.420        0
  1167  2835-56-24      3   32   43   0.500  -0.420        0
  1168  2849-42-363     1   32   44   0.150   0.370        0
  1169  2849-48-336     1   32   44   0.150   0.370        0
  1170  2828-55-343     3   33   44  -0.310   0.370        0
  1171  2828-61-38      3   33   44  -0.310   0.370        0
  1172  2828-66-55      3   33   44  -0.310   0.370        0
  1173  2828-71-365     3   33   44  -0.310   0.370        0
  1174  2846-8-32      -3   32   44   0.190  -0.410        0
  1175  2847-56-24     -3   32   43   0.190   0.200        0
  1176  2833-1-283      1   33   43  -0.460   0.000        0
  1177  2821-43-27     -2   33   44   0.190  -0.410        0
  1178  2821-48-334    -2   33   44   0.190  -0.410        0
  1179  2821-56-23     -2   33   44   0.190  -0.410        0
  1180  2821-61-54     -2   33   44   0.190  -0.410        0
  1181  2821-66-13     -2   33   44   0.190  -0.410        0
  1182  2817-1-364      1   33   44   0.190  -0.410        0
  1183  2805-48-334    -2   34   44  -0.430  -0.410        0
  1184  2805-56-23     -2   34   44  -0.430  -0.410        0
  1185  2805-61-53     -2   34   44  -0.430  -0.410        0
  1186  2805-66-20     -2   34   44  -0.430  -0.410        0
  1187  2798-8-32      -2   34   44   0.070  -0.280        0
  1188  2792-48-334     2   34   44   0.140   0.110        0
  1189  2792-56-23      2   34   44   0.140   0.110        0
  1190  2792-61-53      2   34   44   0.140   0.110        0
  1191  2792-66-20      2   34   44   0.140   0.110        0
  1192  2820-3-338      2   33   46   0.070   0.120        0
  1193  2820-6-224      2   33   46   0.070   0.120        0
  1194  2820-7-11       2   33   46   0.070   0.120        0
  1195  2820-12-46      2   33   46   0.070   0.120        0
  1196  2820-17-19      2   33   46   0.070   0.120        0
  1197  2820-22-17      2   33   46   0.070   0.120        0
  1198  2820-27-32      2   33   46   0.070   0.120        0
  1199  2820-31-351     2   33   46   0.070   0.120        0
  1200  2820-37-28      2   33   46   0.070   0.120        0
  1201  2820-48-334     2   33   46   0.070   0.120        0
  1202  2820-56-23      2   33   46   0.070   0.120        0
  1203  2820-60-319     2   33   46   0.070   0.120        0
  1204  2820-65-299     2   33   46   0.070   0.120        0
  1205  2820-71-365     2   33   46   0.070   0.120        0
  1206  2802-48-334     3   34   46  -0.350   0.180        0
  1207  2802-56-23      3   34   46  -0.350   0.180        0
  1208  2802-61-53      3   34   46  -0.350   0.180        0
  1209  2802-66-20      3   34   46  -0.350   0.180        0
  1210  2795-17-19      2   34   46   0.150   0.090        0
  1211  2795-22-17      2   34   46   0.150   0.090        0
  1212  2795-32-13      2   34   46   0.150   0.090        0
  1213  2795-37-345     2   34   46   0.150   0.090        0
  1214  2795-49-5       2   34   46   0.150   0.090        0
  1215  2795-55-343     2   34   46   0.150   0.090        0
  1216  2795-71-365     2   34   46   0.150   0.090        0
  1217  2722-61-53     -2   36   49  -0.320   0.140        0
  1218  2723-61-53      2   36   49  -0.360   0.110        0
  1219  2723-66-20      2   36   49  -0.360   0.110        0
  1220  2715-48-335     2   36   49   0.140  -0.280        0
  1221  2715-56-23      2   36   49   0.140  -0.280        0
  1222  2715-61-53      2   36   49   0.140  -0.280        0
  1223  2715-66-20      2   36   49   0.140  -0.280        0
  1224  2754-1-365      1   35   48   0.030   0.000        0
  1225  2764-48-334    -2   35   47  -0.320   0.090        0
  1226  2764-56-23     -2   35   47  -0.320   0.090        0
  1227  2764-61-53     -2   35   47  -0.320   0.090        0
  1228  2764-66-20     -2   35   47  -0.320   0.090        0
  1229  2732-48-335     1   35   47   0.410  -0.040        0
  1230  2732-56-20      1   35   47   0.410  -0.040        0
  1231  2739-1-360      1   35   48   0.260   0.200        0
  1232  2736-8-32      -2   35   48   0.180   0.000        0
  1233  2724-48-334    -2   36   48  -0.400  -0.100        0
  1234  2724-56-23     -2   36   48  -0.400  -0.100        0
  1235  2724-61-53     -2   36   48  -0.400  -0.100        0
  1236  2724-66-20     -2   36   48  -0.400  -0.100        0
  1237  2737-42-363    -2   35   45   0.180  -0.340        0
  1238  2717-2-1        2   36   46   0.020  -0.500        0
  1239  2716-8-32       2   36   46   0.020  -0.240        0
  1240  2727-11-121     2   36   42  -0.400  -0.200        0
  1241  2789-12-271     2   34   39   0.250   0.170        0
  1242  2696-1-364      2   36   44   0.360   0.430        0
  1243  2696-6-341      2   36   44   0.360   0.430        0
  1244  2696-11-334     2   36   44   0.360   0.430        0
  1245  2696-16-313     2   36   44   0.360   0.430        0
  1246  2696-22-34      2   36   44   0.360   0.430        0
  1247  2708-48-337     2   36   44   0.170   0.490        0
  1248  2708-56-19      2   36   44   0.170   0.490        0
  1249  2708-66-28      2   36   44   0.170   0.490        0
  1250  2701-32-43     -3   36   46   0.290  -0.370        0
  1251  2701-42-363    -3   36   46   0.290  -0.370        0
  1252  2701-56-19     -3   36   46   0.290  -0.370        0
  1253  2668-42-363     1   38   46  -0.450  -0.340        0
  1254  2668-56-19      2   38   46  -0.450  -0.340        0
  1255  2668-61-52      2   38   46  -0.450  -0.340        0
  1256  2668-66-35      2   38   46  -0.450  -0.340        0
  1257  2681-8-32       1   37   49  -0.020  -0.410        0
  1258  2678-48-335     2   37   49   0.020  -0.410        0
  1259  2678-56-23      2   37   49   0.020  -0.410        0
  1260  2678-61-54      2   37   49   0.020  -0.410        0
  1261  2678-66-20      2   37   49   0.020  -0.410        0
  1262  2690-66-55      2   37   47  -0.330  -0.140        0
  1263  2692-2-1        2   37   47  -0.440  -0.010        0
  1264  2676-43-27     -2   37   51   0.130  -0.430        0
  1265  2676-48-335    -2   37   51   0.130  -0.430        0
  1266  2676-56-23     -2   37   51   0.130  -0.430        0
  1267  2676-61-53     -2   37   51   0.130  -0.430        0
  1268  2676-66-13     -2   37   51   0.130  -0.430        0
  1269  2705-48-335     1   36   50   0.220  -0.440        0
  1270  2705-56-23      1   36   50   0.220  -0.440        0
  1271  2705-61-54      1   36   50   0.220  -0.440        0
  1272  2705-66-18      1   36   50   0.220  -0.440        0
  1273  2707-43-27     -2   36   49   0.210   0.240        0
  1274  2707-48-335    -2   36   49   0.210   0.240        0
  1275  2707-56-23     -2   36   49   0.210   0.240        0
  1276  2707-61-53     -2   36   49   0.210   0.240        0
  1277  2707-66-20     -2   36   49   0.210   0.240        0
  1278  2689-48-335     1   37   49  -0.250  -0.350        0
  1279  2689-56-20      1   37   49  -0.250  -0.350        0
  1280  2656-43-27      1   38   49   0.130   0.140        0
  1281  2656-48-334     1   38   49   0.130   0.140        0
  1282  2656-56-23      1   38   49   0.130   0.140        0
  1283  2656-61-53      1   38   49   0.130   0.140        0
  1284  2656-66-20      1   38   49   0.130   0.140        0
  1285  2674-33-76      2   37   50   0.250   0.400        0
  1286  2973-56-19     -2   27   60   0.460  -0.110        0
  1287  2973-66-32     -2   27   60   0.460  -0.110        0
  1288  2973-71-56     -2   27   60   0.460  -0.110        0
  1289  2977-38-91     -2   27   60   0.460  -0.140        0
  1290  2977-43-6      -2   27   60   0.460  -0.140        0
  1291  2977-48-335    -2   27   60   0.460  -0.140        0
  1292  2977-66-32     -2   27   60   0.460  -0.140        0
  1293  2991-42-362     2   26   55   0.380  -0.010        0
  1294  2991-48-334     2   26   55   0.380  -0.010        0
  1295  2991-56-27      2   26   55   0.380  -0.010        0
  1296  2991-61-59      2   26   55   0.380  -0.010        0
  1297  2991-66-25      2   26   55   0.380  -0.010        0
  1298  2991-71-57      2   26   55   0.380  -0.010        0
  1299  2966-42-362    -2   28   55  -0.200  -0.310        0
  1300  2932-42-362     2   29   51   0.210  -0.330        0
  1301  2932-48-336     2   29   51   0.210  -0.330        0
  1302  2932-56-24      2   29   51   0.210  -0.330        0
  1303  2914-42-357     2   30   52  -0.020   0.490        0
  1304  2914-48-365     2   30   52  -0.020   0.490        0
  1305  2914-55-342     2   30   52  -0.020   0.490        0
  1306  2914-61-38      2   30   52  -0.020   0.490        0
  1307  2914-66-40      2   30   52  -0.020   0.490        0
  1308  2914-71-335     2   30   52  -0.020   0.490        0
  1309  2940-55-342     2   29   53  -0.280  -0.380        0
  1310  2917-42-365     2   30   53  -0.330   0.400        0
  1311  2917-48-336     2   30   53  -0.330   0.400        0
  1312  2917-56-26      2   30   53  -0.330   0.400        0
  1313  2917-61-59      2   30   53  -0.330   0.400        0
  1314  2917-66-27      2   30   53  -0.330   0.400        0
  1315  2917-71-55      2   30   53  -0.330   0.400        0
  1316  2924-42-362     2   29   54   0.370   0.430        0
  1317  2930-36-43      2   30   61  -0.440  -0.430        0
  1318  2930-56-27      2   30   61  -0.440  -0.430        0
  1319  2930-66-33      2   30   61  -0.440  -0.430        0
  1320  2930-71-56      2   30   61  -0.440  -0.430        0
  1321  2929-42-357    -2   29   62   0.290   0.490        0
  1322  2929-48-355    -2   29   62   0.290   0.490        0
  1323  2929-55-342    -2   29   62   0.290   0.490        0
  1324  2929-60-362    -2   29   62   0.290   0.490        0
  1325  2929-66-1      -2   29   62   0.290   0.490        0
  1326  2929-71-335    -2   29   62   0.290   0.490        0
  1327  2888-43-6      -2   31   61  -0.100  -0.230        0
  1328  2888-48-334    -2   31   61  -0.100  -0.230        0
  1329  2888-56-26     -2   31   61  -0.100  -0.230        0
  1330  2888-66-32     -2   31   61  -0.100  -0.230        0
  1331  2888-71-56     -2   31   61  -0.100  -0.230        0
  1332  2856-32-84     -2   32   61   0.050  -0.010        0
  1333  2852-43-5      -2   32   61   0.010   0.320        0
  1334  2852-56-19     -2   32   61   0.010   0.320        0
  1335  2852-66-35     -2   32   61   0.010   0.320        0
  1336  2852-71-56     -2   32   61   0.010   0.320        0
  1337  2869-43-8       2   32   62  -0.410   0.190        0
  1338  2869-48-334     2   32   62  -0.410   0.190        0
  1339  2869-56-24      2   32   62  -0.410   0.190        0
  1340  2899-42-362     2   30   55   0.480   0.280        0
  1341  2899-48-338     2   30   55   0.480   0.280        0
  1342  2903-33-257    -2   30   55   0.360  -0.140        0
  1343  2908-42-357     2   30   54   0.400   0.470        0
  1344  2908-48-356     2   30   54   0.400   0.470        0
  1345  2908-55-342     2   30   54   0.400   0.470        0
  1346  2908-66-26      2   30   54   0.400   0.470        0
  1347  2908-71-335     2   30   54   0.400   0.470        0
  1348  2879-55-342     2   31   53   0.240  -0.220        0
  1349  2879-61-40      2   31   53   0.240  -0.220        0
  1350  2879-66-19      2   31   53   0.240  -0.220        0
  1351  2879-71-335     2   31   53   0.240  -0.220        0
  1352  2878-66-26      2   31   54   0.240   0.470        0
  1353  2878-71-335     2   31   54   0.240   0.470        0
  1354  2897-1-274      2   31   52  -0.450   0.290        0
  1355  2897-6-284      2   31   52  -0.450   0.290        0
  1356  2898-11-34      2   31   52  -0.480   0.190        0
  1357  2898-16-361     2   31   52  -0.480   0.190        0
  1358  2898-37-33      2   31   52  -0.480   0.190        0
  1359  2882-43-32      2   31   51   0.160  -0.400        0
  1360  2882-48-365     2   31   51   0.160  -0.400        0
  1361  2882-55-342     2   31   51   0.160  -0.400        0
  1362  2882-61-38      2   31   51   0.160  -0.400        0
  1363  2882-66-40      2   31   51   0.160  -0.400        0
  1364  2882-71-335     2   31   51   0.160  -0.400        0
  1365  2870-33-274     2   32   51  -0.410  -0.240        0
  1366  2862-33-135     2   32   52  -0.220  -0.420        0
  1367  2824-66-31      2   33   52  -0.110   0.420        0
  1368  2824-71-54      2   33   52  -0.110   0.420        0
  1369  2807-49-5       2   34   54  -0.500   0.340        0
  1370  2807-55-342     2   34   54  -0.500   0.340        0
  1371  2807-71-62      2   34   54  -0.500   0.340        0
  1372  2797-71-62      2   34   56   0.070   0.450        0
  1373  2845-66-35      2   32   58   0.240   0.430        0
  1374  2845-71-62      2   32   58   0.240   0.430        0
  1375  2841-1-274      2   32   57   0.310  -0.290        0
  1376  2841-6-284      2   32   57   0.310  -0.290        0
  1377  2841-11-34      2   32   57   0.310  -0.290        0
  1378  2841-16-361     2   32   57   0.310  -0.290        0
  1379  2841-38-91      2   32   57   0.310  -0.290        0
  1380  2841-39-91      2   32   57   0.310  -0.290        0
  1381  2841-42-364     2   32   57   0.310  -0.290        0
  1382  2841-48-336     2   32   57   0.310  -0.290        0
  1383  2815-56-24      2   33   57   0.270  -0.360        0
  1384  2801-33-52      2   34   57  -0.080  -0.130        0
  1385  2844-43-6       2   32   59   0.280   0.270        0
  1386  2844-48-334     2   32   59   0.280   0.270        0
  1387  2844-56-19      2   32   59   0.280   0.270        0
  1388  2844-66-34      2   32   59   0.280   0.270        0
  1389  2844-71-61      2   32   59   0.280   0.270        0
  1390  2819-56-17      2   33   60   0.120  -0.440        0
  1391  2825-56-19      2   33   60  -0.260   0.470        0
  1392  2825-66-35      2   33   60  -0.260   0.470        0
  1393  2794-33-62      3   34   59   0.150  -0.310        0
  1394  2791-42-356     3   34   59   0.150  -0.340        0
  1395  2791-48-337     3   34   59   0.150  -0.340        0
  1396  2791-61-61      3   34   59   0.150  -0.340        0
  1397  2791-66-26      3   34   59   0.150  -0.340        0
  1398  2806-42-356    -2   34   60  -0.190  -0.240        0
  1399  2806-48-337    -2   34   60  -0.190  -0.240        0
  1400  2840-43-5       2   32   62   0.390   0.000        0
  1401  2840-48-334     2   32   62   0.390   0.000        0
  1402  2840-56-19      2   32   62   0.390   0.000        0
  1403  2840-61-56      2   32   62   0.390   0.000        0
  1404  2840-66-32      2   32   62   0.390   0.000        0
  1405  2827-66-32      2   33   61  -0.300   0.250        0
  1406  2827-71-61      2   33   61  -0.300   0.250        0
  1407  2813-66-26      2   33   61   0.350  -0.230        0
  1408  2813-71-323     2   33   61   0.350  -0.230        0
  1409  2814-42-357    -2   34   61  -0.310  -0.140        0
  1410  2814-55-342    -2   34   61  -0.310  -0.140        0
  1411  2814-61-35     -2   34   61  -0.310  -0.140        0
  1412  2814-66-26     -2   34   61  -0.310  -0.140        0
  1413  2804-42-357    -2   34   61  -0.350  -0.100        0
  1414  2804-55-342    -2   34   61  -0.350  -0.100        0
  1415  2804-61-35     -2   34   61  -0.350  -0.100        0
  1416  2804-66-26     -2   34   61  -0.350  -0.100        0
  1417  2812-42-335     3   33   62   0.350  -0.360        0
  1418  2812-48-355     3   33   62   0.350  -0.360        0
  1419  2812-55-342     3   33   62   0.350  -0.360        0
  1420  2812-61-35      3   33   62   0.350  -0.360        0
  1421  2812-71-323     3   33   62   0.350  -0.360        0
  1422  2765-42-357     2   35   61   0.180  -0.230        0
  1423  2765-48-355     2   35   61   0.180  -0.230        0
  1424  2765-55-342     2   35   61   0.180  -0.230        0
  1425  2765-61-35      2   35   61   0.180  -0.230        0
  1426  2765-66-26      2   35   61   0.180  -0.230        0
  1427  2765-71-323     2   35   61   0.180  -0.230        0
  1428  2728-8-69       2   36   59  -0.430   0.110        0
  1429  2719-42-357     2   36   59  -0.090  -0.020        0
  1430  2719-48-356     2   36   59  -0.090  -0.020        0
  1431  2719-55-343     2   36   59  -0.090  -0.020        0
  1432  2726-42-357     2   36   60  -0.390   0.440        0
  1433  2726-48-355     2   36   60  -0.390   0.440        0
  1434  2726-55-342     2   36   60  -0.390   0.440        0
  1435  2726-61-35      2   36   60  -0.390   0.440        0
  1436  2726-66-26      2   36   60  -0.390   0.440        0
  1437  2726-71-323     2   36   60  -0.390   0.440        0
  1438  2784-71-62      2   34   57   0.300  -0.490        0
  1439  2730-56-24      2   35   58   0.410  -0.350        0
  1440  2730-61-54      2   35   58   0.410  -0.350        0
  1441  2730-66-18      2   35   58   0.410  -0.350        0
  1442  2781-16-361     2   34   56   0.340   0.380        0
  1443  2782-17-7       2   34   56   0.300   0.020        0
  1444  2782-71-62      2   34   56   0.300   0.020        0
  1445  2762-48-338     2   35   56  -0.270   0.450        0
  1446  2785-56-23      2   34   56   0.420  -0.010        0
  1447  2785-66-19      2   34   56   0.420  -0.010        0
  1448  2757-56-24      2   35   56  -0.080   0.190        0
  1449  2757-66-19      2   35   56  -0.080   0.190        0
  1450  2763-56-24      2   35   55  -0.200   0.340        0
  1451  2763-66-19      2   35   55  -0.200   0.340        0
  1452  2729-56-24      2   36   55  -0.390   0.340        0
  1453  2729-66-18      2   36   55  -0.390   0.340        0
  1454  2720-16-298     2   36   56  -0.160  -0.140        0
  1455  2720-22-31      2   36   56  -0.160  -0.140        0
  1456  2706-66-35      2   36   56   0.140   0.450        0
  1457  2710-56-24      2   36   56   0.140   0.450        0
  1458  2755-56-23      2   35   53  -0.160  -0.220        0
  1459  2755-61-54      2   35   53  -0.160  -0.220        0
  1460  2755-66-18      2   35   53  -0.160  -0.220        0
  1461  2735-1-365      2   35   53   0.340  -0.390        0
  1462  2778-33-182     2   34   51   0.420  -0.200        0
  1463  2759-34-121     2   35   51  -0.080   0.250        0
  1464  2738-66-26      2   35   51   0.260   0.020        0
  1465  2738-71-348     2   35   51   0.260   0.020        0
  1466  2733-10-280     2   36   52  -0.430   0.190        0
  1467  2733-22-19      2   36   52  -0.430   0.190        0
  1468  2733-42-362     2   36   52  -0.430   0.190        0
  1469  2733-48-362     2   36   52  -0.430   0.190        0
  1470  2733-55-342     2   36   52  -0.430   0.190        0
  1471  2733-61-38      2   36   52  -0.430   0.190        0
  1472  2733-66-40      2   36   52  -0.430   0.190        0
  1473  2733-71-348     2   36   52  -0.430   0.190        0
  1474  2698-49-8       2   36   51   0.330   0.480        0
  1475  2698-55-342     2   36   51   0.330   0.480        0
  1476  2698-61-10      2   36   51   0.330   0.480        0
  1477  2698-71-348     2   36   51   0.330   0.480        0
  1478  2665-42-362    -2   38   51  -0.020  -0.170        0
  1479  2665-48-362    -2   38   51  -0.020  -0.170        0
  1480  2665-55-342    -2   38   51  -0.020  -0.170        0
  1481  2665-61-4      -2   38   51  -0.020  -0.170        0
  1482  2665-66-26     -2   38   51  -0.020  -0.170        0
  1483  2665-71-348    -2   38   51  -0.020  -0.170        0
  1484  2664-1-360      1   38   51  -0.180   0.380        0
  1485  2664-6-341      1   38   51  -0.180   0.380        0
  1486  2662-42-362     2   38   52   0.050   0.000        0
  1487  2662-48-361     2   38   52   0.050   0.000        0
  1488  2662-55-342     2   38   52   0.050   0.000        0
  1489  2662-71-348     2   38   52   0.050   0.000        0
  1490  2659-55-342     2   38   52   0.050   0.000        0
  1491  2659-61-11      2   38   52   0.050   0.000        0
  1492  2659-66-26      2   38   52   0.050   0.000        0
  1493  2659-71-348     2   38   52   0.050   0.000        0
  1494  2658-1-92       1   38   52   0.050   0.390        0
  1495  2742-17-3       2   36   54   0.370   0.500        0
  1496  2742-22-1       2   36   54   0.370   0.500        0
  1497  2742-38-91      2   36   54   0.370   0.500        0
  1498  2742-56-24      2   36   54   0.370   0.500        0
  1499  2742-61-54      2   36   54   0.370   0.500        0
  1500  2742-66-31      2   36   54   0.370   0.500        0
  1501  2742-71-62      2   36   54   0.370   0.500        0
  1502  2683-42-362     2   37   53   0.100  -0.290        0
  1503  2683-48-362     2   37   53   0.100  -0.290        0
  1504  2683-55-342     2   37   53   0.100  -0.290        0
  1505  2683-61-32      2   37   53   0.100  -0.290        0
  1506  2683-66-40      2   37   53   0.100  -0.290        0
  1507  2686-1-274      2   37   53  -0.130   0.460        0
  1508  2686-6-283      2   37   53  -0.130   0.460        0
  1509  2686-10-280     2   37   53  -0.130   0.460        0
  1510  2666-1-274      1   38   52  -0.440   0.130        0
  1511  2666-6-283      1   38   52  -0.440   0.130        0
  1512  2670-17-3       2   37   54   0.400   0.500        0
  1513  2670-22-31      2   37   54   0.400   0.500        0
  1514  2670-31-351     2   37   54   0.400   0.500        0
  1515  2670-36-50      2   37   54   0.400   0.500        0
  1516  2670-42-352     2   37   54   0.400   0.500        0
  1517  2670-56-24      2   37   54   0.400   0.500        0
  1518  2670-61-54      2   37   54   0.400   0.500        0
  1519  2670-66-33      2   37   54   0.400   0.500        0
  1520  2670-71-62      2   37   54   0.400   0.500        0
  1521  2703-36-244     2   36   60   0.220   0.470        0
  1522  2703-48-355     2   36   60   0.220   0.470        0
  1523  2703-55-343     2   36   60   0.220   0.470        0
  1524  2703-61-35      2   36   60   0.220   0.470        0
  1525  2703-66-19      2   36   60   0.220   0.470        0
  1526  2703-71-323     2   36   60   0.220   0.470        0
  1527  2680-71-61      2   37   60  -0.020  -0.230        0
  1528  2704-42-335     2   36   59   0.220   0.140        0
  1529  2704-48-356     2   36   59   0.220   0.140        0
  1530  2672-42-356     2   38   59  -0.330  -0.380        0
  1531  2672-66-33      2   38   59  -0.330  -0.380        0
  1532  2672-71-63      2   38   59  -0.330  -0.380        0
  1533  2657-42-356     2   38   60   0.170  -0.080        0
  1534  2657-66-33      2   38   60   0.170  -0.080        0
  1535  2685-42-356     2   37   61   0.170  -0.490        0
  1536  2685-48-355     2   37   61   0.170  -0.490        0
  1537  2685-55-343     2   37   61   0.170  -0.490        0
  1538  2685-61-35      2   37   61   0.170  -0.490        0
  1539  2685-66-26      2   37   61   0.170  -0.490        0
  1540  2685-71-323     2   37   61   0.170  -0.490        0
  1541  2983-16-361     2   27   66  -0.270   0.480        0
  1542  2983-22-31      2   27   66  -0.270   0.480        0
  1543  2983-27-11      2   27   66  -0.270   0.480        0
  1544  2980-43-8       2   27   66   0.030  -0.370        0
  1545  2980-48-334     2   27   66   0.030  -0.370        0
  1546  2980-56-24      2   27   66   0.030  -0.370        0
  1547  2990-16-361     2   26   64   0.420   0.500        0
  1548  2990-48-337     2   26   64   0.420   0.500        0
  1549  2990-56-24      2   26   64   0.420   0.500        0
  1550  2956-2-85       2   28   65   0.260  -0.110        0
  1551  2956-6-284      2   28   65   0.260  -0.110        0
  1552  2956-12-261     2   28   65   0.260  -0.110        0
  1553  2956-16-133     2   28   65   0.260  -0.110        0
  1554  2956-26-124     2   28   65   0.260  -0.110        0
  1555  2956-37-34      2   28   65   0.260  -0.110        0
  1556  2956-43-5       2   28   65   0.260  -0.110        0
  1557  2956-48-334     2   28   65   0.260  -0.110        0
  1558  2956-56-27      2   28   65   0.260  -0.110        0
  1559  2956-66-35      2   28   65   0.260  -0.110        0
  1560  2956-71-12      2   28   65   0.260  -0.110        0
  1561  2956-71-365     2   28   65   0.260  -0.110        0
  1562  2931-11-62      2   29   63   0.210   0.430        0
  1563  2931-16-361     2   29   63   0.210   0.430        0
  1564  2931-22-31      2   29   63   0.210   0.430        0
  1565  2635-56-25      3   38   20   0.500   0.290        0
  1566  2595-16-355     3   40   19   0.440   0.310        0
  1567  2595-48-349     3   40   19   0.440   0.310        0
  1568  2595-55-355     3   40   19   0.440   0.310        0
  1569  2595-61-4       3   40   19   0.440   0.310        0
  1570  2595-66-47      3   40   19   0.440   0.310        0
  1571  2595-71-5       3   40   19   0.440   0.310        0
  1572  2595-71-365     3   40   19   0.440   0.310        0
  1573  2594-48-350    -2   40   21   0.410  -0.300        0
  1574  2594-55-355    -2   40   21   0.410  -0.300        0
  1575  2594-66-47     -2   40   21   0.410  -0.300        0
  1576  2594-71-5      -2   40   21   0.410  -0.300        0
  1577  2594-71-365    -2   40   21   0.410  -0.300        0
  1578  2599-66-47      2   40   20   0.260   0.310        0
  1579  2599-71-5       2   40   20   0.260   0.310        0
  1580  2599-71-365     2   40   20   0.260   0.310        0
  1581  2596-42-351    -2   40   18   0.400   0.360        0
  1582  2596-48-349    -2   40   18   0.400   0.360        0
  1583  2596-55-355    -2   40   18   0.400   0.360        0
  1584  2596-61-4      -2   40   18   0.400   0.360        0
  1585  2596-66-34     -2   40   18   0.400   0.360        0
  1586  2596-71-5       3   40   18   0.400   0.360        0
  1587  2596-71-365     3   40   18   0.400   0.360        0
  1588  2591-56-3       3   40   18   0.330   0.330        0
  1589  2591-61-4       3   40   18   0.330   0.330        0
  1590  2591-66-34      3   40   18   0.330   0.330        0
  1591  2591-71-5       3   40   18   0.330   0.330        0
  1592  2591-71-365     3   40   18   0.330   0.330        0
  1593  2588-42-351     3   40   16   0.470   0.120        0
  1594  2588-48-349     3   40   16   0.470   0.120        0
  1595  2588-55-355     3   40   16   0.470   0.120        0
  1596  2588-61-4       3   40   16   0.470   0.120        0
  1597  2588-66-47      3   40   16   0.470   0.120        0
  1598  2588-71-4       3   40   16   0.470   0.120        0
  1599  2588-71-365     3   40   16   0.470   0.120        0
  1600  2564-12-171     3   41   18   0.090   0.390        0
  1601  2564-16-355     3   41   18   0.090   0.390        0
  1602  2564-22-37      3   41   18   0.090   0.390        0
  1603  2530-42-351    -2   42   18   0.350   0.260        0
  1604  2530-48-349    -2   42   18   0.350   0.260        0
  1605  2530-55-355    -2   42   18   0.350   0.260        0
  1606  2530-61-6      -2   42   18   0.350   0.260        0
  1607  2530-66-47     -2   42   18   0.350   0.260        0
  1608  2530-71-5       3   42   18   0.350   0.260        0
  1609  2530-71-365     3   42   18   0.350   0.260        0
  1610  2529-17-6       3   42   20   0.440   0.370        0
  1611  2529-56-24      3   42   20   0.440   0.370        0
  1612  2529-61-52      3   42   20   0.440   0.370        0
  1613  2529-66-19      3   42   20   0.440   0.370        0
  1614  2587-1-105      2   40   21   0.490  -0.360        0
  1615  2587-7-3        2   40   21   0.490  -0.360        0
  1616  2449-32-85      2   44   25   0.360   0.310        0
  1617  2492-48-349    -2   43   22   0.400   0.420        0
  1618  2492-61-4      -2   43   22   0.400   0.420        0
  1619  2492-66-39     -2   43   22   0.400   0.420        0
  1620  2492-71-6       3   43   22   0.400   0.420        0
  1621  2492-71-365     3   43   22   0.400   0.420        0
  1622  2491-56-3       3   43   23   0.400  -0.260        0
  1623  2491-61-6       3   43   23   0.400  -0.260        0
  1624  2491-66-39      3   43   23   0.400  -0.260        0
  1625  2491-71-6       3   43   23   0.400  -0.260        0
  1626  2491-71-365     3   43   23   0.400  -0.260        0
  1627  2450-48-349    -2   44   23   0.430   0.160        0
  1628  2450-55-354    -2   44   23   0.430   0.160        0
  1629  2450-61-4      -2   44   23   0.430   0.160        0
  1630  2450-66-39     -2   44   23   0.430   0.160        0
  1631  2450-71-6       2   44   23   0.430   0.160        0
  1632  2450-71-365     2   44   23   0.430   0.160        0
  1633  2451-48-349    -2   44   22   0.430   0.380        0
  1634  2451-55-355    -2   44   22   0.430   0.380        0
  1635  2451-61-4      -2   44   22   0.430   0.380        0
  1636  2451-66-27     -2   44   22   0.430   0.380        0
  1637  2451-71-6       3   44   22   0.430   0.380        0
  1638  2451-71-365     3   44   22   0.430   0.380        0
  1639  2442-48-348     3   44   20   0.430  -0.220        0
  1640  2442-56-23      3   44   20   0.430  -0.220        0
  1641  2442-60-319     3   44   20   0.430  -0.220        0
  1642  2442-66-26      3   44   20   0.430  -0.220        0
  1643  2442-71-11      3   44   20   0.430  -0.220        0
  1644  2452-12-171     3   44   20   0.430   0.330        0
  1645  2452-16-314     3   44   20   0.430   0.330        0
  1646  2452-32-85      3   44   20   0.430   0.330        0
  1647  2452-35-53      3   44   20   0.430   0.330        0
  1648  2390-42-351     3   45   17   0.260  -0.050        0
  1649  2390-48-349     3   45   17   0.260  -0.050        0
  1650  2390-55-355     3   45   17   0.260  -0.050        0
  1651  2390-66-47      3   45   17   0.260  -0.050        0
  1652  2390-71-6       3   45   17   0.260  -0.050        0
  1653  2390-71-365     3   45   17   0.260  -0.050        0
  1654  2303-42-351    -2   46   17   0.370  -0.050        0
  1655  2303-48-349    -2   46   17   0.370  -0.050        0
  1656  2303-55-355    -2   46   17   0.370  -0.050        0
  1657  2303-61-4      -2   46   17   0.370  -0.050        0
  1658  2303-66-47     -2   46   17   0.370  -0.050        0
  1659  2303-71-6       3   46   17   0.370  -0.050        0
  1660  2303-71-365     3   46   17   0.370  -0.050        0
  1661  2417-56-24      3   45   20   0.000  -0.190        0
  1662  2417-61-54      3   45   20   0.000  -0.190        0
  1663  2411-56-24      3   45   20   0.040  -0.190        0
  1664  2411-61-54      3   45   20   0.040  -0.190        0
  1665  2259-42-352     3   46   21   0.490  -0.280        0
  1666  2259-56-3       3   46   21   0.490  -0.280        0
  1667  2296-22-38     -2   46   21   0.420   0.370        0
  1668  2296-42-352    -2   46   21   0.420   0.370        0
  1669  2296-48-350    -2   46   21   0.420   0.370        0
  1670  2296-55-354    -2   46   21   0.420   0.370        0
  1671  2296-61-6      -2   46   21   0.420   0.370        0
  1672  2296-66-39     -2   46   21   0.420   0.370        0
  1673  2296-71-6       3   46   21   0.420   0.370        0
  1674  2296-71-365     3   46   21   0.420   0.370        0
  1675  2302-48-350    -2   46   22   0.460   0.380        0
  1676  2302-55-354    -2   46   22   0.460   0.380        0
  1677  2302-61-6      -2   46   22   0.460   0.380        0
  1678  2302-66-32     -2   46   22   0.460   0.380        0
  1679  2302-71-6       3   46   22   0.460   0.380        0
  1680  2302-71-365     3   46   22   0.460   0.380        0
  1681  2301-37-33     -2   46   23   0.460   0.350        0
  1682  2301-42-352    -2   46   23   0.460   0.350        0
  1683  2301-48-349    -2   46   23   0.460   0.350        0
  1684  2301-55-354    -2   46   23   0.460   0.350        0
  1685  2301-66-1      -2   46   23   0.460   0.350        0
  1686  2301-71-6      -2   46   23   0.460   0.350        0
  1687  2301-71-365    -2   46   23   0.460   0.350        0
  1688  2440-55-354     3   44   25   0.480   0.370        0
  1689  2440-61-6       3   44   25   0.480   0.370        0
  1690  2440-65-342     3   44   25   0.480   0.370        0
  1691  2440-71-6       3   44   25   0.480   0.370        0
  1692  2440-71-365     3   44   25   0.480   0.370        0
  1693  2300-16-354    -2   46   25   0.280   0.370        0
  1694  2300-48-350    -2   46   25   0.280   0.370        0
  1695  2300-55-355    -2   46   25   0.280   0.370        0
  1696  2300-61-6      -2   46   25   0.280   0.370        0
  1697  2300-65-341    -2   46   25   0.280   0.370        0
  1698  2300-71-7      -2   46   25   0.280   0.370        0
  1699  2300-71-365     2   46   25   0.280   0.370        0
  1700  2220-12-311    -2   47   26   0.390  -0.250        0
  1701  2220-16-356    -2   47   26   0.390  -0.250        0
  1702  2220-48-350    -2   47   26   0.390  -0.250        0
  1703  2220-55-354    -2   47   26   0.390  -0.250        0
  1704  2220-61-7      -2   47   26   0.390  -0.250        0
  1705  2220-66-39     -2   47   26   0.390  -0.250        0
  1706  2220-71-7      -2   47   26   0.390  -0.250        0
  1707  2220-71-365     3   47   26   0.390  -0.250        0
  1708  2222-55-354    -2   47   25   0.390   0.070        0
  1709  2222-61-6      -2   47   25   0.390   0.070        0
  1710  2222-65-341    -2   47   25   0.390   0.070        0
  1711  2222-71-7      -2   47   25   0.390   0.070        0
  1712  2222-71-365     3   47   25   0.390   0.070        0
  1713  2096-48-350    -2   48   25   0.310   0.360        0
  1714  2096-55-354    -2   48   25   0.310   0.360        0
  1715  2096-61-6      -2   48   25   0.310   0.360        0
  1716  2096-65-343    -2   48   25   0.310   0.360        0
  1717  2096-71-7      -2   48   25   0.310   0.360        0
  1718  2096-71-365     3   48   25   0.310   0.360        0
  1719  2089-12-171    -2   48   23   0.410  -0.170        0
  1720  2089-42-352    -2   48   23   0.410  -0.170        0
  1721  2089-48-350    -2   48   23   0.410  -0.170        0
  1722  2089-55-354    -2   48   23   0.410  -0.170        0
  1723  2089-61-6      -2   48   23   0.410  -0.170        0
  1724  2089-66-55     -2   48   23   0.410  -0.170        0
  1725  2089-71-6       3   48   23   0.410  -0.170        0
  1726  2089-71-365     3   48   23   0.410  -0.170        0
  1727  2088-42-352    -2   48   24   0.420  -0.200        0
  1728  2088-48-350    -2   48   24   0.420  -0.200        0
  1729  2088-55-354    -2   48   24   0.420  -0.200        0
  1730  2088-61-6      -2   48   24   0.420  -0.200        0
  1731  2088-66-48     -2   48   24   0.420  -0.200        0
  1732  2088-71-6       3   48   24   0.420  -0.200        0
  1733  2088-71-365     3   48   24   0.420  -0.200        0
  1734  2620-61-53      3   40   33  -0.480  -0.430        0
  1735  2620-66-28      3   40   33  -0.480  -0.430        0
  1736  2630-1-86       3   39   33  -0.280  -0.500        0
  1737  2615-21-353     2   40   32  -0.360   0.240        0
  1738  2615-27-20      2   40   32  -0.360   0.240        0
  1739  2615-36-64      2   40   32  -0.360   0.240        0
  1740  2615-42-350     2   40   32  -0.360   0.240        0
  1741  2618-56-23      2   40   32  -0.440   0.310        0
  1742  2618-61-53      2   40   32  -0.440   0.310        0
  1743  2618-66-28      2   40   32  -0.440   0.310        0
  1744  2616-1-109      2   40   32  -0.370  -0.080        0
  1745  2616-7-10       3   40   32  -0.370  -0.080        0
  1746  2616-10-319     3   40   32  -0.370  -0.080        0
  1747  2607-56-23      3   40   32  -0.020  -0.440        0
  1748  2607-61-53      3   40   32  -0.020  -0.440        0
  1749  2607-66-28      3   40   32  -0.020  -0.440        0
  1750  2578-2-305      2   41   28  -0.300   0.180        0
  1751  2582-1-105      2   41   30  -0.370   0.260        0
  1752  2577-56-23      3   41   30  -0.300   0.060        0
  1753  2577-61-53      3   41   30  -0.300   0.060        0
  1754  2577-66-28      3   41   30  -0.300   0.060        0
  1755  2573-56-27      3   41   30  -0.140   0.350        0
  1756  2553-33-188     3   41   29   0.460  -0.400        0
  1757  2553-56-27      3   41   29   0.460  -0.400        0
  1758  2574-1-107      2   41   32  -0.220   0.430        0
  1759  2580-1-109      3   41   33  -0.330  -0.270        0
  1760  2571-21-354     3   41   33  -0.100  -0.370        0
  1761  2498-37-34      2   43   32   0.270   0.170        0
  1762  2498-42-350     2   43   32   0.270   0.170        0
  1763  2519-56-23      3   43   31  -0.340  -0.100        0
  1764  2507-48-300     3   43   28  -0.010   0.460        0
  1765  2507-55-318     3   43   28  -0.010   0.460        0
  1766  2507-60-313     3   43   28  -0.010   0.460        0
  1767  2507-65-364     3   43   28  -0.010   0.460        0
  1768  2507-71-350     3   43   28  -0.010   0.460        0
  1769  2508-48-300     3   43   28  -0.010   0.460        0
  1770  2508-55-318     3   43   28  -0.010   0.460        0
  1771  2508-60-313     3   43   28  -0.010   0.460        0
  1772  2508-65-364     3   43   28  -0.010   0.460        0
  1773  2508-71-350     3   43   28  -0.010   0.460        0
  1774  2448-56-25      2   44   28   0.410   0.170        0
  1775  2448-61-52      2   44   28   0.410   0.170        0
  1776  2448-66-20      2   44   28   0.410   0.170        0
  1777  2311-56-23      3   46   29   0.400   0.430        0
  1778  2311-61-53      3   46   29   0.400   0.430        0
  1779  2311-66-28      3   46   29   0.400   0.430        0
  1780  2084-2-305      2   48   29   0.470  -0.350        0
  1781  2099-42-352    -2   48   27   0.390  -0.470        0
  1782  2099-48-365    -2   48   27   0.390  -0.470        0
  1783  2099-55-354    -2   48   27   0.390  -0.470        0
  1784  2099-61-7      -2   48   27   0.390  -0.470        0
  1785  2099-65-344    -2   48   27   0.390  -0.470        0
  1786  2099-71-365    -2   48   27   0.390  -0.470        0
  1787  2087-71-365     2   48   27   0.420  -0.470        0
  1788  2110-71-365     3   48   28   0.270  -0.430        0
  1789  2040-65-364     2   49   28   0.000  -0.140        0
  1790  2040-71-365     2   49   28   0.000  -0.140        0
  1791  2034-65-364     3   49   28   0.040  -0.100        0
  1792  2034-71-12      3   49   28   0.040  -0.100        0
  1793  2034-71-365     3   49   28   0.040  -0.100        0
  1794  2009-71-8       3   49   28   0.380  -0.460        0
  1795  2009-71-365     3   49   28   0.380  -0.460        0
  1796  2008-71-8       3   49   26   0.420   0.460        0
  1797  2008-71-365     3   49   26   0.420   0.460        0
  1798  1923-16-315    -2   50   26   0.410   0.400        0
  1799  1923-22-38     -2   50   26   0.410   0.400        0
  1800  1923-27-24     -2   50   26   0.410   0.400        0
  1801  1923-32-85     -2   50   26   0.410   0.400        0
  1802  1923-36-1      -2   50   26   0.410   0.400        0
  1803  1923-42-352    -2   50   26   0.410   0.400        0
  1804  1923-48-348    -2   50   26   0.410   0.400        0
  1805  1923-55-354    -2   50   26   0.410   0.400        0
  1806  1923-60-323    -2   50   26   0.410   0.400        0
  1807  1923-65-343    -2   50   26   0.410   0.400        0
  1808  1923-71-8      -2   50   26   0.410   0.400        0
  1809  1923-71-365    -2   50   26   0.410   0.400        0
  1810  1914-55-354     2   50   26   0.410   0.460        0
  1811  1914-61-7       2   50   26   0.410   0.460        0
  1812  1914-71-8       2   50   26   0.410   0.460        0
  1813  1919-71-8       3   50   26   0.370   0.430        0
  1814  1914-71-365     2   50   26   0.410   0.460        0
  1815  1919-71-365     3   50   26   0.370   0.430        0
  1816  1938-65-364     2   50   27   0.110   0.180        0
  1817  1960-65-364     2   50   27  -0.010   0.020        0
  1818  1922-12-171    -2   50   27   0.340   0.340        0
  1819  1922-42-352    -2   50   27   0.340   0.340        0
  1820  1922-48-349    -2   50   27   0.340   0.340        0
  1821  1922-55-354    -2   50   27   0.340   0.340        0
  1822  1922-61-7      -2   50   27   0.340   0.340        0
  1823  1922-71-8      -2   50   27   0.340   0.340        0
  1824  1922-71-365     2   50   27   0.340   0.340        0
  1825  1918-10-108     2   50   27   0.300   0.410        0
  1826  1918-66-32      2   50   27   0.300   0.410        0
  1827  1918-71-8       2   50   27   0.300   0.410        0
  1828  1918-71-365     2   50   27   0.300   0.410        0
  1829  1959-71-8       3   50   28   0.000  -0.170        0
  1830  1959-71-365     3   50   28   0.000  -0.170        0
  1831  1944-71-365     2   50   28   0.070  -0.200        0
  1832  1988-35-4      -2   50   32  -0.380   0.320        0
  1833  1908-56-18      2   50   32   0.430   0.480        0
  1834  1908-66-18      2   50   32   0.430   0.480        0
  1835  2638-33-46      2   38   50   0.170  -0.150        0
  1836  2648-35-95     -2   38   49   0.280  -0.030        0
  1837  2627-48-336    -2   39   50  -0.070  -0.410        0
  1838  2619-2-1       -2   40   50  -0.460   0.270        0
  1839  2642-12-43      1   38   48   0.320   0.290        0
  1840  2649-17-23     -2   38   48   0.280   0.360        0
  1841  2649-22-20     -2   38   48   0.280   0.360        0
  1842  2649-42-363    -2   38   48   0.280   0.360        0
  1843  2649-48-336    -2   38   48   0.280   0.360        0
  1844  2649-56-20     -2   38   48   0.280   0.360        0
  1845  2649-61-55     -2   38   48   0.280   0.360        0
  1846  2628-1-365      1   39   48  -0.110  -0.160        0
  1847  2650-71-350     2   38   47   0.200   0.120        0
  1848  2655-42-362     2   38   47   0.160   0.120        0
  1849  2655-48-362     2   38   47   0.160   0.120        0
  1850  2655-55-343     2   38   47   0.160   0.120        0
  1851  2655-61-40      2   38   47   0.160   0.120        0
  1852  2655-66-55      2   38   47   0.160   0.120        0
  1853  2655-71-350     2   38   47   0.160   0.120        0
  1854  2604-61-55      1   40   48   0.120  -0.460        0
  1855  2626-22-20     -3   39   49   0.200  -0.380        0
  1856  2626-32-42     -3   39   49   0.200  -0.380        0
  1857  2623-8-279      1   39   48   0.280   0.260        0
  1858  2623-12-32      1   39   48   0.280   0.260        0
  1859  2623-17-22      1   39   48   0.280   0.260        0
  1860  2623-22-1       1   39   48   0.280   0.260        0
  1861  2623-27-34      1   39   48   0.280   0.260        0
  1862  2608-12-43      2   40   48  -0.040   0.290        0
  1863  2608-17-23      2   40   48  -0.040   0.290        0
  1864  2608-22-20      2   40   48  -0.040   0.290        0
  1865  2608-32-42      2   40   48  -0.040   0.290        0
  1866  2629-3-217      1   39   46  -0.110  -0.110        0
  1867  2606-56-26      3   40   46   0.120   0.440        0
  1868  2606-61-55      3   40   46   0.120   0.440        0
  1869  2606-66-20      3   40   46   0.120   0.440        0
  1870  2592-12-43     -2   40   50   0.390   0.340        0
  1871  2592-17-23     -2   40   50   0.390   0.340        0
  1872  2592-22-23     -2   40   50   0.390   0.340        0
  1873  2592-42-364    -2   40   50   0.390   0.340        0
  1874  2592-48-336    -2   40   50   0.390   0.340        0
  1875  2592-56-20     -2   40   50   0.390   0.340        0
  1876  2592-61-55     -2   40   50   0.390   0.340        0
  1877  2603-27-15     -2   40   50   0.160   0.010        0
  1878  2603-42-362    -2   40   50   0.160   0.010        0
  1879  2603-48-336    -2   40   50   0.160   0.010        0
  1880  2603-55-343    -2   40   50   0.160   0.010        0
  1881  2603-61-40     -2   40   50   0.160   0.010        0
  1882  2603-65-343    -2   40   50   0.160   0.010        0
  1883  2603-71-47     -2   40   50   0.160   0.010        0
  1884  2603-71-350    -2   40   50   0.160   0.010        0
  1885  2593-1-365      1   40   49   0.390   0.390        0
  1886  2558-22-23     -2   41   50   0.300  -0.440        0
  1887  2558-27-35     -2   41   50   0.300  -0.440        0
  1888  2558-42-362    -2   41   50   0.300  -0.440        0
  1889  2558-48-362    -2   41   50   0.300  -0.440        0
  1890  2558-55-343    -2   41   50   0.300  -0.440        0
  1891  2558-61-40     -2   41   50   0.300  -0.440        0
  1892  2651-42-356     2   38   61   0.250  -0.490        0
  1893  2632-66-33      2   39   61  -0.370  -0.400        0
  1894  2632-71-63      2   39   61  -0.370  -0.400        0
  1895  2644-48-345     2   38   60   0.280   0.250        0
  1896  2644-71-63      2   38   60   0.280   0.250        0
  1897  2645-42-356     2   38   59   0.320  -0.380        0
  1898  2645-48-345     2   38   59   0.320  -0.380        0
  1899  2645-66-33      2   38   59   0.320  -0.380        0
  1900  2645-71-63      2   38   59   0.320  -0.380        0
  1901  2624-71-63      2   39   59   0.240   0.110        0
  1902  2609-42-365    -2   40   58  -0.110  -0.190        0
  1903  2609-48-338    -2   40   58  -0.110  -0.190        0
  1904  2609-56-24     -2   40   58  -0.110  -0.190        0
  1905  2609-61-54     -2   40   58  -0.110  -0.190        0
  1906  2609-66-26     -2   40   58  -0.110  -0.190        0
  1907  2609-71-62     -2   40   58  -0.110  -0.190        0
  1908  2631-56-24      1   39   53  -0.180  -0.390        0
  1909  2631-61-54      1   39   53  -0.180  -0.390        0
  1910  2631-66-33      1   39   53  -0.180  -0.390        0
  1911  2652-17-24     -2   38   53   0.240  -0.480        0
  1912  2652-22-19     -2   38   53   0.240  -0.480        0
  1913  2652-27-33     -2   38   53   0.240  -0.480        0
  1914  2652-42-362    -2   38   53   0.240  -0.480        0
  1915  2634-66-19      1   39   51  -0.410   0.250        0
  1916  2633-56-23      1   39   52  -0.410  -0.490        0
  1917  2647-1-51       1   38   51   0.280  -0.270        0
  1918  2613-56-26     -2   40   52  -0.070  -0.430        0
  1919  2622-11-34     -2   39   52   0.320   0.480        0
  1920  2622-17-3      -2   39   52   0.320   0.480        0
  1921  2622-22-25     -2   39   52   0.320   0.480        0
  1922  2622-27-11     -2   39   52   0.320   0.480        0
  1923  2622-32-46     -2   39   52   0.320   0.480        0
  1924  2625-42-362    -2   39   53   0.240  -0.490        0
  1925  2605-42-362     2   40   52   0.000   0.480        0
  1926  2605-48-362     2   40   52   0.000   0.480        0
  1927  2605-55-343     2   40   52   0.000   0.480        0
  1928  2605-61-38      2   40   52   0.000   0.480        0
  1929  2605-66-49      2   40   52   0.000   0.480        0
  1930  2605-71-40      2   40   52   0.000   0.480        0
  1931  2605-71-350     2   40   52   0.000   0.480        0
  1932  2570-8-37       1   40   52   0.040   0.220        0
  1933  2570-12-46      1   40   52   0.040   0.220        0
  1934  2570-17-24      1   40   52   0.040   0.220        0
  1935  2570-22-25      1   40   52   0.040   0.220        0
  1936  2560-22-25     -3   41   51   0.270   0.470        0
  1937  2560-27-34     -3   41   51   0.270   0.470        0
  1938  2560-32-36     -3   41   51   0.270   0.470        0
  1939  2560-42-363    -3   41   51   0.270   0.470        0
  1940  2545-56-20      2   42   51  -0.040   0.380        0
  1941  2544-1-50       1   42   52  -0.010   0.250        0
  1942  2544-6-39       1   42   52  -0.010   0.250        0
  1943  2576-16-25      1   41   55  -0.270  -0.440        0
  1944  2576-22-25      1   41   55  -0.270  -0.440        0
  1945  2576-26-28      1   41   55  -0.270  -0.440        0
  1946  2581-66-26      2   41   55  -0.340  -0.440        0
  1947  2581-71-62      2   41   55  -0.340  -0.440        0
  1948  2600-17-24     -2   40   54   0.230  -0.450        0
  1949  2600-22-25     -2   40   54   0.230  -0.450        0
  1950  2600-27-54     -2   40   54   0.230  -0.450        0
  1951  2600-32-36     -2   40   54   0.230  -0.450        0
  1952  2600-38-32     -2   40   54   0.230  -0.450        0
  1953  2600-39-32     -2   40   54   0.230  -0.450        0
  1954  2600-48-362    -2   40   54   0.230  -0.450        0
  1955  2600-55-343    -2   40   54   0.230  -0.450        0
  1956  2600-61-40     -2   40   54   0.230  -0.450        0
  1957  2600-66-49     -2   40   54   0.230  -0.450        0
  1958  2600-71-40     -2   40   54   0.230  -0.450        0
  1959  2600-71-350    -2   40   54   0.230  -0.450        0
  1960  2566-66-26      2   41   53   0.110   0.360        0
  1961  2562-48-335    -2   41   53   0.150   0.260        0
  1962  2562-56-25     -2   41   53   0.150   0.260        0
  1963  2543-1-2        1   42   53   0.030  -0.290        0
  1964  2546-7-316      1   42   54   0.070  -0.410        0
  1965  2546-12-46      1   42   54   0.070  -0.410        0
  1966  2546-17-33      1   42   54   0.070  -0.410        0
  1967  2546-22-25      1   42   54   0.070  -0.410        0
  1968  2546-27-11      1   42   54   0.070  -0.410        0
  1969  2546-32-46      1   42   54   0.070  -0.410        0
  1970  2546-38-46      1   42   54   0.070  -0.410        0
  1971  2546-39-32      1   42   54   0.070  -0.410        0
  1972  2546-56-25      1   42   54   0.070  -0.410        0
  1973  2541-17-3       2   42   54   0.190  -0.380        0
  1974  2541-27-11      2   42   54   0.190  -0.380        0
  1975  2548-42-362     2   42   54  -0.230  -0.320        0
  1976  2548-48-362     2   42   54  -0.230  -0.320        0
  1977  2548-55-347     2   42   54  -0.230  -0.320        0
  1978  2548-60-362     2   42   54  -0.230  -0.320        0
  1979  2547-66-48      1   42   54  -0.230  -0.220        0
  1980  2547-71-12      1   42   54  -0.230  -0.220        0
  1981  2547-71-350     1   42   54  -0.230  -0.220        0
  1982  2551-42-352    -2   42   55  -0.350  -0.440        0
  1983  2551-56-24     -2   42   55  -0.350  -0.440        0
  1984  2551-66-26     -2   42   55  -0.350  -0.440        0
  1985  2550-42-362     1   42   56  -0.390  -0.460        0
  1986  2550-56-24      1   42   56  -0.390  -0.460        0
  1987  2550-61-54      1   42   56  -0.390  -0.460        0
  1988  2550-66-26      1   42   56  -0.390  -0.460        0
  1989  2542-22-25     -2   42   56   0.000  -0.460        0
  1990  2542-27-54     -2   42   56   0.000  -0.460        0
  1991  2542-66-26     -2   42   56   0.000  -0.460        0
  1992  2552-56-24      2   42   56  -0.460   0.410        0
  1993  2552-61-54      2   42   56  -0.460   0.410        0
  1994  2552-66-33      2   42   56  -0.460   0.410        0
  1995  2552-71-62      2   42   56  -0.460   0.410        0
  1996  2598-1-274      1   40   57   0.310   0.490        0
  1997  2598-6-284      1   40   57   0.310   0.490        0
  1998  2598-11-62      1   40   57   0.310   0.490        0
  1999  2584-12-325     2   41   59  -0.380  -0.410        0
  2000  2584-17-3       2   41   59  -0.380  -0.410        0
  2001  2584-22-31      2   41   59  -0.380  -0.410        0
  2002  2584-27-11      2   41   59  -0.380  -0.410        0
  2003  2540-48-357     2   42   60   0.190   0.050        0
  2004  2540-55-343     2   42   60   0.190   0.050        0
  2005  2540-61-38      2   42   60   0.190   0.050        0
  2006  2540-66-59      2   42   60   0.190   0.050        0
  2007  2540-71-40      2   42   60   0.190   0.050        0
  2008  2540-71-365     2   42   60   0.190   0.050        0
  2009  2597-42-335     2   40   62   0.350  -0.160        0
  2010  2597-48-357     2   40   62   0.350  -0.160        0
  2011  2597-55-343     2   40   62   0.350  -0.160        0
  2012  2597-61-38      2   40   62   0.350  -0.160        0
  2013  2597-66-59      2   40   62   0.350  -0.160        0
  2014  2597-71-40      2   40   62   0.350  -0.160        0
  2015  2597-71-365     2   40   62   0.350  -0.160        0
  2016  2565-48-342     2   41   62   0.080   0.000        0
  2017  2575-55-343     2   41   61  -0.230   0.450        0
  2018  2539-11-34      2   42   61   0.190  -0.170        0
  2019  2539-22-79      2   42   61   0.190  -0.170        0
  2020  2539-32-46      2   42   61   0.190  -0.170        0
  2021  2539-37-34      2   42   61   0.190  -0.170        0
  2022  2539-48-337     2   42   61   0.190  -0.170        0
  2023  2539-60-321     2   42   61   0.190  -0.170        0
  2024  2539-65-299     2   42   61   0.190  -0.170        0
  2025  2539-71-13      2   42   61   0.190  -0.170        0
  2026  2539-71-365     2   42   61   0.190  -0.170        0
  2027  2478-61-31      2   44   61  -0.210   0.130        0
  2028  2478-66-1       2   44   61  -0.210   0.130        0
  2029  2478-71-41      2   44   61  -0.210   0.130        0
  2030  2478-71-365     2   44   61  -0.210   0.130        0
  2031  2474-16-298     1   44   62  -0.090   0.070        0
  2032  2474-22-32      1   44   62  -0.090   0.070        0
  2033  2474-27-10      1   44   62  -0.090   0.070        0
  2034  2531-42-362     2   42   60   0.380  -0.210        0
  2035  2531-48-357     2   42   60   0.380  -0.210        0
  2036  2531-55-343     2   42   60   0.380  -0.210        0
  2037  2531-61-38      2   42   60   0.380  -0.210        0
  2038  2531-66-59      2   42   60   0.380  -0.210        0
  2039  2531-71-40      2   42   60   0.380  -0.210        0
  2040  2531-71-365     2   42   60   0.380  -0.210        0
  2041  2504-71-63      2   43   60   0.110   0.120        0
  2042  2520-71-62      2   43   59  -0.390   0.140        0
  2043  2482-42-362    -2   44   60  -0.360  -0.500        0
  2044  2482-48-362    -2   44   60  -0.360  -0.500        0
  2045  2482-55-343    -2   44   60  -0.360  -0.500        0
  2046  2482-61-40     -2   44   60  -0.360  -0.500        0
  2047  2482-66-45     -2   44   60  -0.360  -0.500        0
  2048  2482-71-26     -2   44   60  -0.360  -0.500        0
  2049  2482-71-365    -2   44   60  -0.360  -0.500        0
  2050  2470-55-343     2   44   60  -0.010   0.050        0
  2051  2470-66-45      2   44   60  -0.010   0.050        0
  2052  2470-71-41      2   44   60  -0.010   0.050        0
  2053  2470-71-365     2   44   60  -0.010   0.050        0
  2054  2473-55-343     2   44   60  -0.010   0.050        0
  2055  2476-48-362     2   44   60   0.060   0.090        0
  2056  2476-55-343     2   44   60   0.060   0.090        0
  2057  2476-61-32      2   44   60   0.060   0.090        0
  2058  2476-66-45      2   44   60   0.060   0.090        0
  2059  2476-71-41      2   44   60   0.060   0.090        0
  2060  2476-71-365     2   44   60   0.060   0.090        0
  2061  2523-37-1       1   43   58  -0.430  -0.090        0
  2062  2512-71-62      2   43   58  -0.010  -0.190        0
  2063  2513-17-24      1   43   57  -0.010   0.030        0
  2064  2513-22-25      1   43   57  -0.010   0.030        0
  2065  2513-26-362     1   43   57  -0.010   0.030        0
  2066  2487-42-355     2   44   57  -0.470   0.450        0
  2067  2467-12-46      1   44   57   0.060  -0.030        0
  2068  2467-17-3       1   44   57   0.060  -0.030        0
  2069  2467-22-25      1   44   57   0.060  -0.030        0
  2070  2467-27-54      1   44   57   0.060  -0.030        0
  2071  2467-32-46      1   44   57   0.060  -0.030        0
  2072  2467-38-32      1   44   57   0.060  -0.030        0
  2073  2466-2-128      2   44   57   0.060   0.450        0
  2074  2496-42-335     2   43   58   0.300   0.490        0
  2075  2496-48-362     2   43   58   0.300   0.490        0
  2076  2496-55-343     2   43   58   0.300   0.490        0
  2077  2496-61-32      2   43   58   0.300   0.490        0
  2078  2496-66-45      2   43   58   0.300   0.490        0
  2079  2496-71-40      2   43   58   0.300   0.490        0
  2080  2496-71-365     2   43   58   0.300   0.490        0
  2081  2486-42-362     2   44   58  -0.320   0.270        0
  2082  2486-48-362     2   44   58  -0.320   0.270        0
  2083  2486-55-343     2   44   58  -0.320   0.270        0
  2084  2486-60-344     2   44   58  -0.320   0.270        0
  2085  2486-66-45      2   44   58  -0.320   0.270        0
  2086  2486-71-26      2   44   58  -0.320   0.270        0
  2087  2486-71-365     2   44   58  -0.320   0.270        0
  2088  2499-33-95     -2   43   58   0.370  -0.380        0
  2089  2493-66-33      2   43   58   0.340  -0.160        0
  2090  2490-66-45      2   43   58   0.450  -0.420        0
  2091  2490-71-26      2   43   58   0.450  -0.420        0
  2092  2490-71-365     2   43   58   0.450  -0.420        0
  2093  2538-17-24     -2   42   57   0.230  -0.460        0
  2094  2538-22-25     -2   42   57   0.230  -0.460        0
  2095  2538-27-47     -2   42   57   0.230  -0.460        0
  2096  2538-32-46     -2   42   57   0.230  -0.460        0
  2097  2538-37-34     -2   42   57   0.230  -0.460        0
  2098  2538-42-363    -2   42   57   0.230  -0.460        0
  2099  2538-48-338    -2   42   57   0.230  -0.460        0
  2100  2538-56-24     -2   42   57   0.230  -0.460        0
  2101  2538-60-321    -2   42   57   0.230  -0.460        0
  2102  2534-56-24      2   42   56   0.340   0.320        0
  2103  2534-66-19      2   42   56   0.340   0.320        0
  2104  2532-56-24      2   42   56   0.380  -0.170        0
  2105  2500-71-62      2   43   56   0.110   0.450        0
  2106  2517-48-362     2   43   55  -0.160   0.180        0
  2107  2517-55-343     2   43   55  -0.160   0.180        0
  2108  2517-61-32      2   43   55  -0.160   0.180        0
  2109  2517-66-40      2   43   55  -0.160   0.180        0
  2110  2517-71-350     2   43   55  -0.160   0.180        0
  2111  2514-17-3       1   43   55   0.070   0.410        0
  2112  2475-22-25     -2   44   55  -0.130   0.050        0
  2113  2475-27-11     -2   44   55  -0.130   0.050        0
  2114  2475-43-32     -2   44   55  -0.130   0.050        0
  2115  2475-48-362    -2   44   55  -0.130   0.050        0
  2116  2475-55-347    -2   44   55  -0.130   0.050        0
  2117  2475-60-362    -2   44   55  -0.130   0.050        0
  2118  2475-66-1      -2   44   55  -0.130   0.050        0
  2119  2475-71-350    -2   44   55  -0.130   0.050        0
  2120  2480-22-25     -2   44   57  -0.240  -0.460        0
  2121  2480-42-362    -2   44   57  -0.240  -0.460        0
  2122  2480-48-362    -2   44   57  -0.240  -0.460        0
  2123  2480-56-5      -2   44   57  -0.240  -0.460        0
  2124  2480-61-5      -2   44   57  -0.240  -0.460        0
  2125  2480-66-40     -2   44   57  -0.240  -0.460        0
  2126  2480-71-26     -2   44   57  -0.240  -0.460        0
  2127  2480-71-350    -2   44   57  -0.240  -0.460        0
  2128  2471-17-3       1   44   56   0.020   0.280        0
  2129  2471-27-11      1   44   56   0.020   0.280        0
  2130  2536-48-362    -2   42   55   0.340  -0.410        0
  2131  2536-55-347    -2   42   55   0.340  -0.410        0
  2132  2536-60-362    -2   42   55   0.340  -0.410        0
  2133  2536-66-40     -2   42   55   0.340  -0.410        0
  2134  2536-71-350    -2   42   55   0.340  -0.410        0
  2135  2528-42-362    -2   42   54   0.420  -0.350        0
  2136  2528-48-362    -2   42   54   0.420  -0.350        0
  2137  2528-55-347    -2   42   54   0.420  -0.350        0
  2138  2528-60-362    -2   42   54   0.420  -0.350        0
  2139  2528-66-48     -2   42   54   0.420  -0.350        0
  2140  2528-71-350    -2   42   54   0.420  -0.350        0
  2141  2509-17-3       2   43   54   0.070   0.500        0
  2142  2509-31-351     2   43   54   0.070   0.500        0
  2143  2521-42-363    -2   43   53  -0.390   0.490        0
  2144  2521-48-335    -2   43   53  -0.390   0.490        0
  2145  2521-56-25     -2   43   53  -0.390   0.490        0
  2146  2521-61-56     -2   43   53  -0.390   0.490        0
  2147  2505-56-25      2   43   54   0.100  -0.410        0
  2148  2506-48-335    -2   43   53   0.140   0.490        0
  2149  2506-56-25     -2   43   53   0.140   0.490        0
  2150  2506-61-56     -2   43   53   0.140   0.490        0
  2151  2506-66-18     -2   43   53   0.140   0.490        0
  2152  2506-71-11     -2   43   53   0.140   0.490        0
  2153  2506-71-365    -2   43   53   0.140   0.490        0
  2154  2488-1-357      2   44   54  -0.470   0.460        0
  2155  2488-7-316      2   44   54  -0.470   0.460        0
  2156  2488-10-283     2   44   54  -0.470   0.460        0
  2157  2488-17-33      2   44   54  -0.470   0.460        0
  2158  2488-22-25      2   44   54  -0.470   0.460        0
  2159  2488-27-47      2   44   54  -0.470   0.460        0
  2160  2488-37-27      2   44   54  -0.470   0.460        0
  2161  2472-1-357      1   44   54   0.140   0.070        0
  2162  2472-8-36       1   44   54   0.140   0.070        0
  2163  2472-12-50      1   44   54   0.140   0.070        0
  2164  2472-17-33      1   44   54   0.140   0.070        0
  2165  2537-22-25      2   42   52   0.260  -0.270        0
  2166  2537-27-47      2   42   52   0.260  -0.270        0
  2167  2537-32-46      2   42   52   0.260  -0.270        0
  2168  2537-37-34      2   42   52   0.260  -0.270        0
  2169  2537-42-363     2   42   52   0.260  -0.270        0
  2170  2537-56-20      2   42   52   0.260  -0.270        0
  2171  2497-42-363     1   43   51   0.290  -0.270        0
  2172  2497-48-337     1   43   51   0.290  -0.270        0
  2173  2497-56-20      1   43   51   0.290  -0.270        0
  2174  2434-48-362     2   45   53  -0.370  -0.450        0
  2175  2434-55-346     2   45   53  -0.370  -0.450        0
  2176  2434-61-6       2   45   53  -0.370  -0.450        0
  2177  2434-66-48      2   45   53  -0.370  -0.450        0
  2178  2434-71-12      2   45   53  -0.370  -0.450        0
  2179  2434-71-350     2   45   53  -0.370  -0.450        0
  2180  2355-42-362    -2   46   51   0.010   0.340        0
  2181  2355-48-362    -2   46   51   0.010   0.340        0
  2182  2355-55-343    -2   46   51   0.010   0.340        0
  2183  2355-61-40     -2   46   51   0.010   0.340        0
  2184  2355-71-47      3   46   51   0.010   0.340        0
  2185  2355-71-350     3   46   51   0.010   0.340        0
  2186  2428-56-38      2   45   55  -0.330  -0.370        0
  2187  2428-66-48      2   45   55  -0.330  -0.370        0
  2188  2428-71-5       2   45   55  -0.330  -0.370        0
  2189  2428-71-365     2   45   55  -0.330  -0.370        0
  2190  2433-66-48      2   45   54  -0.360  -0.120        0
  2191  2433-71-5       2   45   54  -0.360  -0.120        0
  2192  2433-71-365     2   45   54  -0.360  -0.120        0
  2193  2403-48-362    -2   45   54  -0.020  -0.280        0
  2194  2403-55-343    -2   45   54  -0.020  -0.280        0
  2195  2403-66-59     -2   45   54  -0.020  -0.280        0
  2196  2403-71-47     -2   45   54  -0.020  -0.280        0
  2197  2403-71-365    -2   45   54  -0.020  -0.280        0
  2198  2410-66-59      2   45   54   0.090  -0.090        0
  2199  2410-71-47      2   45   54   0.090  -0.090        0
  2200  2410-71-365     2   45   54   0.090  -0.090        0
  2201  2462-8-38       1   44   53   0.210   0.000        0
  2202  2464-12-50      1   44   53   0.180   0.000        0
  2203  2464-17-23      1   44   53   0.180   0.000        0
  2204  2464-22-23      1   44   53   0.180   0.000        0
  2205  2459-42-362     1   44   53   0.440  -0.030        0
  2206  2459-48-362     1   44   53   0.440  -0.030        0
  2207  2409-66-48      2   45   54   0.090   0.140        0
  2208  2409-71-12      2   45   54   0.090   0.140        0
  2209  2357-12-50      2   46   54   0.090   0.100        0
  2210  2357-17-35      2   46   54   0.090   0.100        0
  2211  2357-22-23      2   46   54   0.090   0.100        0
  2212  2357-27-34      2   46   54   0.090   0.100        0
  2213  2357-37-34      2   46   54   0.090   0.100        0
  2214  2357-66-48      2   46   54   0.090   0.100        0
  2215  2357-71-12      2   46   54   0.090   0.100        0
  2216  2357-71-365     2   46   54   0.090   0.100        0
  2217  2336-61-21      2   46   54   0.090   0.100        0
  2218  2363-56-38      2   46   54  -0.100   0.490        0
  2219  2363-66-48      2   46   54  -0.100   0.490        0
  2220  2363-71-5       2   46   54  -0.100   0.490        0
  2221  2363-71-365     2   46   54  -0.100   0.490        0
  2222  2460-22-25     -2   44   55   0.250   0.340        0
  2223  2460-48-362    -2   44   55   0.250   0.340        0
  2224  2460-55-343    -2   44   55   0.250   0.340        0
  2225  2460-61-20     -2   44   55   0.250   0.340        0
  2226  2460-66-49     -2   44   55   0.250   0.340        0
  2227  2460-71-41     -2   44   55   0.250   0.340        0
  2228  2460-71-350    -2   44   55   0.250   0.340        0
  2229  2399-56-38      2   45   55   0.320   0.050        0
  2230  2399-66-48      2   45   55   0.320   0.050        0
  2231  2399-71-5       2   45   55   0.320   0.050        0
  2232  2399-71-365     2   45   55   0.320   0.050        0
  2233  2373-56-6      -3   46   55  -0.450   0.050        0
  2234  2373-61-6      -3   46   55  -0.450   0.050        0
  2235  2373-66-48     -3   46   55  -0.450   0.050        0
  2236  2373-71-12     -3   46   55  -0.450   0.050        0
  2237  2373-71-365    -3   46   55  -0.450   0.050        0
  2238  2356-56-38      2   46   55  -0.020   0.470        0
  2239  2356-66-42      2   46   55  -0.020   0.470        0
  2240  2356-71-5       2   46   55  -0.020   0.470        0
  2241  2356-71-365     2   46   55  -0.020   0.470        0
  2242  2389-8-37       1   46   56  -0.480   0.150        0
  2243  2389-12-38      1   46   56  -0.480   0.150        0
  2244  2388-17-34      1   46   56  -0.480   0.190        0
  2245  2388-22-25      1   46   56  -0.480   0.190        0
  2246  2388-32-46      1   46   56  -0.480   0.190        0
  2247  2388-38-32      1   46   56  -0.480   0.190        0
  2248  2343-12-50     -2   46   56   0.090  -0.330        0
  2249  2343-17-35     -2   46   56   0.090  -0.330        0
  2250  2343-22-24     -2   46   56   0.090  -0.330        0
  2251  2343-61-21     -2   46   56   0.090  -0.330        0
  2252  2427-42-363    -2   45   58  -0.360   0.040        0
  2253  2427-48-337    -2   45   58  -0.360   0.040        0
  2254  2427-61-20     -2   45   58  -0.360   0.040        0
  2255  2427-66-31     -2   45   58  -0.360   0.040        0
  2256  2418-10-262     1   45   58   0.020  -0.290        0
  2257  2408-10-262     1   45   58   0.100   0.460        0
  2258  2431-7-316      1   45   57  -0.360   0.420        0
  2259  2431-12-38      1   45   57  -0.360   0.420        0
  2260  2446-22-25     -2   45   57  -0.360   0.450        0
  2261  2447-7-32       1   44   57   0.480  -0.290        0
  2262  2432-7-316      1   45   57  -0.360   0.060        0
  2263  2432-12-33      1   45   57  -0.360   0.060        0
  2264  2432-22-1       1   45   57  -0.360   0.060        0
  2265  2432-42-363     1   45   57  -0.360   0.060        0
  2266  2405-16-293     1   45   58   0.170  -0.450        0
  2267  2383-12-50      1   46   58  -0.330   0.270        0
  2268  2383-17-24      1   46   58  -0.330   0.270        0
  2269  2383-22-24      1   46   58  -0.330   0.270        0
  2270  2383-27-11      1   46   58  -0.330   0.270        0
  2271  2383-32-48      1   46   58  -0.330   0.270        0
  2272  2387-61-20     -2   46   58  -0.330   0.270        0
  2273  2387-66-28     -2   46   58  -0.330   0.270        0
  2274  2387-71-54     -2   46   58  -0.330   0.270        0
  2275  2372-27-47      2   46   58  -0.330  -0.380        0
  2276  2372-42-363     2   46   58  -0.330  -0.380        0
  2277  2372-56-19      2   46   58  -0.330  -0.380        0
  2278  2372-71-54      2   46   58  -0.330  -0.380        0
  2279  2332-61-20     -2   46   58   0.130   0.070        0
  2280  2332-66-28     -2   46   58   0.130   0.070        0
  2281  2332-71-54     -2   46   58   0.130   0.070        0
  2282  2437-22-24      2   45   60  -0.440   0.440        0
  2283  2437-27-15      2   45   60  -0.440   0.440        0
  2284  2437-32-48      2   45   60  -0.440   0.440        0
  2285  2438-12-306     1   45   60  -0.440  -0.300        0
  2286  2438-16-298     1   45   60  -0.440  -0.300        0
  2287  2430-42-363    -2   45   60  -0.440  -0.430        0
  2288  2430-48-337    -2   45   60  -0.440  -0.430        0
  2289  2430-56-19     -2   45   60  -0.440  -0.430        0
  2290  2430-66-28     -2   45   60  -0.440  -0.430        0
  2291  2430-71-54     -2   45   60  -0.440  -0.430        0
  2292  2444-10-264     1   45   60  -0.480  -0.080        0
  2293  2424-10-265     1   45   60  -0.210  -0.080        0
  2294  2425-10-265     1   45   60  -0.250   0.180        0
  2295  2414-10-263     1   45   60   0.060   0.180        0
  2296  2458-42-362    -2   44   59   0.220  -0.050        0
  2297  2458-48-362    -2   44   59   0.220  -0.050        0
  2298  2458-56-32     -2   44   59   0.220  -0.050        0
  2299  2458-61-20     -2   44   59   0.220  -0.050        0
  2300  2458-66-49     -2   44   59   0.220  -0.050        0
  2301  2458-71-41     -2   44   59   0.220  -0.050        0
  2302  2458-71-365    -2   44   59   0.220  -0.050        0
  2303  2439-42-363    -2   45   59  -0.440   0.010        0
  2304  2439-48-337    -2   45   59  -0.440   0.010        0
  2305  2439-56-19     -2   45   59  -0.440   0.010        0
  2306  2439-61-20     -2   45   59  -0.440   0.010        0
  2307  2439-66-31     -2   45   59  -0.440   0.010        0
  2308  2415-1-52       1   45   59   0.170   0.470        0
  2309  2407-27-47     -2   45   60   0.100  -0.470        0
  2310  2407-61-20     -2   45   60   0.100  -0.470        0
  2311  2407-66-28     -2   45   60   0.100  -0.470        0
  2312  2407-71-54     -2   45   60   0.100  -0.470        0
  2313  2402-10-263     1   45   59   0.290  -0.310        0
  2314  2394-56-26      1   45   60   0.360   0.120        0
  2315  2394-61-61      1   45   60   0.360   0.120        0
  2316  2394-66-25      1   45   60   0.360   0.120        0
  2317  2386-60-341     2   46   60  -0.480  -0.370        0
  2318  2386-66-49      2   46   60  -0.480  -0.370        0
  2319  2386-71-40      2   46   60  -0.480  -0.370        0
  2320  2386-71-365     2   46   60  -0.480  -0.370        0
  2321  2453-27-47      1   44   62   0.370   0.130        0
  2322  2413-2-121      2   45   62   0.060  -0.350        0
  2323  2412-12-304    -2   45   62   0.060  -0.090        0
  2324  2412-16-298    -2   45   62   0.060  -0.090        0
  2325  2412-16-364    -2   45   62   0.060  -0.090        0
  2326  2398-1-357      1   45   62   0.320   0.130        0
  2327  2398-7-2        1   45   62   0.320   0.130        0
  2328  2395-42-363    -2   45   62   0.360   0.130        0
  2329  2395-48-337    -2   45   62   0.360   0.130        0
  2330  2385-42-363    -2   46   62  -0.480   0.000        0
  2331  2385-48-362    -2   46   62  -0.480   0.000        0
  2332  2385-55-346    -2   46   62  -0.480   0.000        0
  2333  2385-61-31     -2   46   62  -0.480   0.000        0
  2334  2385-66-1      -2   46   62  -0.480   0.000        0
  2335  2385-71-41     -2   46   62  -0.480   0.000        0
  2336  2385-71-365    -2   46   62  -0.480   0.000        0
  2337  2282-12-46      1   47   62  -0.450   0.460        0
  2338  2282-17-24      1   47   62  -0.450   0.460        0
  2339  2282-22-24      1   47   62  -0.450   0.460        0
  2340  2282-32-48      1   47   62  -0.450   0.460        0
  2341  2326-26-293    -3   46   62   0.240  -0.260        0
  2342  2326-42-363    -3   46   62   0.240  -0.260        0
  2343  2326-48-362    -3   46   62   0.240  -0.260        0
  2344  2326-56-33     -3   46   62   0.240  -0.260        0
  2345  2326-61-41     -3   46   62   0.240  -0.260        0
  2346  2326-66-45     -3   46   62   0.240  -0.260        0
  2347  2326-71-41     -3   46   62   0.240  -0.260        0
  2348  2326-71-365    -3   46   62   0.240  -0.260        0
  2349  2260-56-26      1   47   62  -0.300  -0.190        0
  2350  2260-61-61      1   47   62  -0.300  -0.190        0
  2351  2260-66-25      1   47   62  -0.300  -0.190        0
  2352  2260-71-61      1   47   62  -0.300  -0.190        0
  2353  2202-71-61      2   48   61  -0.490  -0.130        0
  2354  2127-42-335    -2   48   61   0.120   0.090        0
  2355  2283-7-311     -2   47   59  -0.450   0.440        0
  2356  2283-17-24     -2   47   59  -0.450   0.440        0
  2357  2283-22-24     -2   47   59  -0.450   0.440        0
  2358  2283-27-47     -2   47   59  -0.450   0.440        0
  2359  2283-32-48     -2   47   59  -0.450   0.440        0
  2360  2283-35-15     -2   47   59  -0.450   0.440        0
  2361  2291-37-32     -2   46   60   0.470  -0.500        0
  2362  2291-48-338    -2   46   60   0.470  -0.500        0
  2363  2291-60-321    -2   46   60   0.470  -0.500        0
  2364  2291-71-13     -2   46   60   0.470  -0.500        0
  2365  2291-71-365    -2   46   60   0.470  -0.500        0
  2366  2304-7-311      1   46   59   0.200  -0.180        0
  2367  2304-12-38      1   46   59   0.200  -0.180        0
  2368  2304-17-3       1   46   59   0.200  -0.180        0
  2369  2304-22-24      1   46   59   0.200  -0.180        0
  2370  2304-27-11      1   46   59   0.200  -0.180        0
  2371  2237-7-79       2   47   60   0.160  -0.470        0
  2372  2237-12-38      2   47   60   0.160  -0.470        0
  2373  2237-17-24      2   47   60   0.160  -0.470        0
  2374  2237-22-24      2   47   60   0.160  -0.470        0
  2375  2237-27-16      2   47   60   0.160  -0.470        0
  2376  2218-56-34      2   47   59   0.430   0.080        0
  2377  2218-66-59      2   47   59   0.430   0.080        0
  2378  2218-71-54      2   47   59   0.430   0.080        0
  2379  2218-71-365     2   47   59   0.430   0.080        0
  2380  2212-26-349    -2   48   60  -0.420  -0.470        0
  2381  2212-42-362    -2   48   60  -0.420  -0.470        0
  2382  2212-61-20     -2   48   60  -0.420  -0.470        0
  2383  2212-66-59     -2   48   60  -0.420  -0.470        0
  2384  2212-71-54     -2   48   60  -0.420  -0.470        0
  2385  2212-71-365    -2   48   60  -0.420  -0.470        0
  2386  2213-56-34      2   47   59   0.470   0.400        0
  2387  2213-66-59      2   47   59   0.470   0.400        0
  2388  2213-71-54      2   47   59   0.470   0.400        0
  2389  2213-71-365     2   47   59   0.470   0.400        0
  2390  2177-42-363    -2   48   59  -0.300  -0.410        0
  2391  2177-48-337     2   48   59  -0.300  -0.410        0
  2392  2177-56-19      2   48   59  -0.300  -0.410        0
  2393  2177-66-31      2   48   59  -0.300  -0.410        0
  2394  2177-71-54      2   48   59  -0.300  -0.410        0
  2395  2175-6-283      2   48   60  -0.040  -0.500        0
  2396  2175-12-51      2   48   60  -0.040  -0.500        0
  2397  2175-17-24      2   48   60  -0.040  -0.500        0
  2398  2175-22-24      2   48   60  -0.040  -0.500        0
  2399  2175-27-47      2   48   60  -0.040  -0.500        0
  2400  2176-56-34      2   48   59  -0.230   0.080        0
  2401  2176-66-59      2   48   59  -0.230   0.080        0
  2402  2176-71-54      2   48   59  -0.230   0.080        0
  2403  2176-71-365     2   48   59  -0.230   0.080        0
  2404  2154-56-19     -2   48   60  -0.040  -0.470        0
  2405  2154-61-20     -2   48   60  -0.040  -0.470        0
  2406  2154-66-28     -2   48   60  -0.040  -0.470        0
  2407  2154-71-54     -2   48   60  -0.040  -0.470        0
  2408  2232-56-26      1   47   60   0.240   0.380        0
  2409  2232-61-20      1   47   60   0.240   0.380        0
  2410  2232-66-25      1   47   60   0.240   0.380        0
  2411  2232-71-53      1   47   60   0.240   0.380        0
  2412  2211-56-26      2   48   60  -0.300   0.310        0
  2413  2211-61-20      2   48   60  -0.300   0.310        0
  2414  2211-66-25      2   48   60  -0.300   0.310        0
  2415  2211-71-53      2   48   60  -0.300   0.310        0
  2416  2233-56-26      1   47   60   0.310  -0.240        0
  2417  2233-61-20      1   47   60   0.310  -0.240        0
  2418  2170-56-26      2   48   60  -0.190  -0.170        0
  2419  2170-66-25      2   48   60  -0.190  -0.170        0
  2420  2131-12-290     1   48   60   0.120   0.410        0
  2421  2131-56-26      2   48   60   0.120   0.410        0
  2422  2131-61-61      2   48   60   0.120   0.410        0
  2423  2131-66-25      2   48   60   0.120   0.410        0
  2424  2131-71-53      2   48   60   0.120   0.410        0
  2425  2137-42-363    -2   48   58   0.040  -0.450        0
  2426  2137-48-338    -2   48   58   0.040  -0.450        0
  2427  2137-56-24     -2   48   58   0.040  -0.450        0
  2428  2137-66-19     -2   48   58   0.040  -0.450        0
  2429  2137-71-60     -2   48   58   0.040  -0.450        0
  2430  2289-11-38      2   47   56  -0.490   0.150        0
  2431  2289-17-33      2   47   56  -0.490   0.150        0
  2432  2289-22-24      2   47   56  -0.490   0.150        0
  2433  2289-32-32      2   47   56  -0.490   0.150        0
  2434  2241-10-33      2   47   56   0.120   0.250        0
  2435  2241-17-33      2   47   56   0.120   0.250        0
  2436  2241-22-24      2   47   56   0.120   0.250        0
  2437  2241-42-363     2   47   56   0.120   0.250        0
  2438  2241-48-334     2   47   56   0.120   0.250        0
  2439  2241-56-26      2   47   56   0.120   0.250        0
  2440  2241-61-21      2   47   56   0.120   0.250        0
  2441  2236-1-357      2   47   56   0.200   0.380        0
  2442  2236-6-341      2   47   56   0.200   0.380        0
  2443  2236-12-59      2   47   56   0.200   0.380        0
  2444  2236-16-313     2   47   56   0.200   0.380        0
  2445  2236-22-32      2   47   56   0.200   0.380        0
  2446  2327-71-365     2   46   56   0.240  -0.400        0
  2447  2306-71-54      2   46   55   0.360   0.310        0
  2448  2306-71-365     2   46   55   0.360   0.310        0
  2449  2264-56-38      2   47   56  -0.300  -0.430        0
  2450  2264-66-48      2   47   56  -0.300  -0.430        0
  2451  2264-71-5       2   47   56  -0.300  -0.430        0
  2452  2264-71-365     2   47   56  -0.300  -0.430        0
  2453  2307-71-54      1   46   55   0.360  -0.050        0
  2454  2307-71-365     1   46   55   0.360  -0.050        0
  2455  2292-56-38      2   46   55   0.470  -0.280        0
  2456  2292-66-42      2   46   55   0.470  -0.280        0
  2457  2293-56-38      2   46   55   0.470  -0.310        0
  2458  2293-66-48      2   46   55   0.470  -0.310        0
  2459  2293-71-12      2   46   55   0.470  -0.310        0
  2460  2293-71-365     2   46   55   0.470  -0.310        0
  2461  2272-55-346     2   47   55  -0.370  -0.080        0
  2462  2272-71-54      1   47   55  -0.370  -0.080        0
  2463  2272-71-365     1   47   55  -0.370  -0.080        0
  2464  2268-66-3       2   47   55  -0.340  -0.210        0
  2465  2268-71-365     2   47   55  -0.340  -0.210        0
  2466  2242-56-38      2   47   55   0.080  -0.180        0
  2467  2242-66-48      2   47   55   0.080  -0.180        0
  2468  2242-71-365     2   47   55   0.080  -0.180        0
  2469  2257-56-38      2   47   55  -0.220   0.210        0
  2470  2257-66-48      2   47   55  -0.220   0.210        0
  2471  2258-56-38      2   47   55  -0.220   0.180        0
  2472  2258-66-48      2   47   55  -0.220   0.180        0
  2473  2187-42-362     2   48   55  -0.380  -0.250        0
  2474  2187-48-336     2   48   55  -0.380  -0.250        0
  2475  2187-56-5       2   48   55  -0.380  -0.250        0
  2476  2187-61-6       2   48   55  -0.380  -0.250        0
  2477  2187-66-48      2   48   55  -0.380  -0.250        0
  2478  2187-71-54      2   48   55  -0.380  -0.250        0
  2479  2187-71-349     2   48   55  -0.380  -0.250        0
  2480  2234-56-38      2   47   57   0.280  -0.460        0
  2481  2234-66-48      2   47   57   0.280  -0.460        0
  2482  2226-66-48      1   47   56   0.350  -0.110        0
  2483  2155-56-38      2   48   56  -0.040  -0.110        0
  2484  2155-66-48      2   48   56  -0.040  -0.110        0
  2485  2333-56-38      2   46   55   0.170  -0.470        0
  2486  2333-66-48      2   46   55   0.170  -0.470        0
  2487  2308-56-38      2   46   54   0.360   0.490        0
  2488  2308-66-48      2   46   54   0.360   0.490        0
  2489  2308-71-21      2   46   54   0.360   0.490        0
  2490  2308-71-365     2   46   54   0.360   0.490        0
  2491  2329-56-38      2   46   54   0.240   0.400        0
  2492  2329-66-48      2   46   54   0.240   0.400        0
  2493  2329-71-12      2   46   54   0.240   0.400        0
  2494  2329-71-365     2   46   54   0.240   0.400        0
  2495  2319-66-48      2   46   55   0.280  -0.380        0
  2496  2320-56-38      2   46   55   0.280  -0.410        0
  2497  2320-66-48      2   46   55   0.280  -0.410        0
  2498  2320-71-12      2   46   55   0.280  -0.410        0
  2499  2320-71-365     2   46   55   0.280  -0.410        0
  2500  2299-55-343     2   46   54   0.430   0.330        0
  2501  2299-71-54      1   46   54   0.430   0.330        0
  2502  2299-71-365     1   46   54   0.430   0.330        0
  2503  2274-56-38      2   47   55  -0.370  -0.470        0
  2504  2274-71-54      1   47   55  -0.370  -0.470        0
  2505  2274-71-365     1   47   55  -0.370  -0.470        0
  2506  2294-56-38      2   46   55   0.470  -0.470        0
  2507  2294-66-48      2   46   55   0.470  -0.470        0
  2508  2294-71-12      2   46   55   0.470  -0.470        0
  2509  2294-71-365     2   46   55   0.470  -0.470        0
  2510  2273-56-38      2   47   55  -0.410  -0.440        0
  2511  2273-66-48      2   47   55  -0.410  -0.440        0
  2512  2273-71-21      2   47   55  -0.410  -0.440        0
  2513  2273-71-365     2   47   55  -0.410  -0.440        0
  2514  2284-66-42      2   47   54  -0.450  -0.090        0
  2515  2167-1-365      2   48   54  -0.150   0.430        0
  2516  2167-7-310      2   48   54  -0.150   0.430        0
  2517  2167-11-38      2   48   54  -0.150   0.430        0
  2518  2183-12-50      2   48   54  -0.270   0.460        0
  2519  2183-17-34      2   48   54  -0.270   0.460        0
  2520  2183-22-23      2   48   54  -0.270   0.460        0
  2521  2183-32-47      2   48   54  -0.270   0.460        0
  2522  2183-38-32      2   48   54  -0.270   0.460        0
  2523  2168-42-364     2   48   54  -0.150   0.400        0
  2524  2243-42-364    -2   47   52   0.050   0.320        0
  2525  2243-56-25     -2   47   52   0.050   0.320        0
  2526  2243-66-19     -2   47   52   0.050   0.320        0
  2527  2108-66-48      2   48   56   0.310   0.280        0
  2528  2109-12-50      2   48   56   0.230  -0.240        0
  2529  2109-17-34      2   48   56   0.230  -0.240        0
  2530  2109-22-23      2   48   56   0.230  -0.240        0
  2531  2109-42-362     2   48   56   0.230  -0.240        0
  2532  2109-48-363     2   48   56   0.230  -0.240        0
  2533  2109-55-346     2   48   56   0.230  -0.240        0
  2534  2109-60-323     2   48   56   0.230  -0.240        0
  2535  2109-66-48      2   48   56   0.230  -0.240        0
  2536  2109-71-12      2   48   56   0.230  -0.240        0
  2537  2109-71-349     2   48   56   0.230  -0.240        0
  2538  1991-7-25      -2   50   56  -0.390   0.310        0
  2539  1991-12-50     -2   50   56  -0.390   0.310        0
  2540  1991-17-34     -2   50   56  -0.390   0.310        0
  2541  1991-22-23     -2   50   56  -0.390   0.310        0
  2542  1991-27-11     -2   50   56  -0.390   0.310        0
  2543  1991-38-32     -2   50   56  -0.390   0.310        0
  2544  1991-42-365    -2   50   56  -0.390   0.310        0
  2545  1991-48-337     2   50   56  -0.390   0.310        0
  2546  1991-56-25      2   50   56  -0.390   0.310        0
  2547  1991-60-323     2   50   56  -0.390   0.310        0
  2548  2038-12-51      2   49   58  -0.350   0.360        0
  2549  2038-17-24      2   49   58  -0.350   0.360        0
  2550  2038-22-24      2   49   58  -0.350   0.360        0
  2551  2038-56-19      2   49   58  -0.350   0.360        0
  2552  2122-61-21     -2   48   57   0.190  -0.070        0
  2553  2075-56-38      2   49   57  -0.420  -0.360        0
  2554  2039-61-21     -2   49   57   0.110   0.190        0
  2555  2021-61-20     -2   49   57   0.190   0.420        0
  2556  2020-61-21     -2   49   57   0.150   0.320        0
  2557  1987-66-48      2   50   57  -0.310  -0.100        0
  2558  1958-42-362    -2   50   57  -0.010   0.100        0
  2559  1958-48-362    -2   50   57  -0.010   0.100        0
  2560  1958-55-346    -2   50   57  -0.010   0.100        0
  2561  1958-61-20     -2   50   57  -0.010   0.100        0
  2562  1958-66-1      -2   50   57  -0.010   0.100        0
  2563  1958-71-47     -2   50   57  -0.010   0.100        0
  2564  1958-71-349    -2   50   57  -0.010   0.100        0
  2565  1952-12-301    -2   50   58  -0.120  -0.420        0
  2566  1952-17-4      -2   50   58  -0.120  -0.420        0
  2567  1952-22-32     -2   50   58  -0.120  -0.420        0
  2568  1952-27-11     -2   50   58  -0.120  -0.420        0
  2569  2107-56-26     -3   48   60   0.350   0.020        0
  2570  2107-61-20     -3   48   60   0.350   0.020        0
  2571  2107-71-53     -3   48   60   0.350   0.020        0
  2572  2079-7-152      2   48   60   0.120   0.410        0
  2573  2079-61-20      2   48   60   0.120   0.410        0
  2574  2057-42-362     2   49   60  -0.160   0.180        0
  2575  2057-48-362     2   49   60  -0.160   0.180        0
  2576  2057-55-346     2   49   60  -0.160   0.180        0
  2577  2057-61-20      2   49   60  -0.160   0.180        0
  2578  2057-65-354     2   49   60  -0.160   0.180        0
  2579  2057-71-56      2   49   60  -0.160   0.180        0
  2580  2057-71-365     2   49   60  -0.160   0.180        0
  2581  2161-6-283      2   48   59  -0.070   0.440        0
  2582  2161-10-283     2   48   59  -0.070   0.440        0
  2583  2161-17-24      2   48   59  -0.070   0.440        0
  2584  2161-22-24      2   48   59  -0.070   0.440        0
  2585  2161-27-47      2   48   59  -0.070   0.440        0
  2586  2161-32-48      2   48   59  -0.070   0.440        0
  2587  2161-38-32      2   48   59  -0.070   0.440        0
  2588  2094-61-20     -3   48   60   0.420  -0.470        0
  2589  2094-66-28     -3   48   60   0.420  -0.470        0
  2590  2094-71-54     -3   48   60   0.420  -0.470        0
  2591  2059-7-311     -2   49   59  -0.270   0.080        0
  2592  2059-12-51     -2   49   59  -0.270   0.080        0
  2593  2059-17-4      -2   49   59  -0.270   0.080        0
  2594  2059-22-24     -2   49   59  -0.270   0.080        0
  2595  2059-27-47     -2   49   59  -0.270   0.080        0
  2596  2059-61-21     -2   49   59  -0.270   0.080        0
  2597  1989-42-365     1   50   59  -0.390  -0.410        0
  2598  1989-56-17      2   50   59  -0.390  -0.410        0
  2599  1989-61-20      2   50   59  -0.390  -0.410        0
  2600  1968-42-365    -2   50   59  -0.120  -0.120        0
  2601  1968-56-17     -2   50   59  -0.120  -0.120        0
  2602  1968-61-20     -2   50   59  -0.120  -0.120        0
  2603  1937-56-17      2   50   59   0.150  -0.020        0
  2604  1937-61-20      2   50   59   0.150  -0.020        0
  2605  1937-66-27      2   50   59   0.150  -0.020        0
  2606  2007-61-21      1   49   60   0.460   0.120        0
  2607  2007-66-25      1   49   60   0.460   0.120        0
  2608  1981-61-21     -2   50   60  -0.240   0.180        0
  2609  2037-66-32      1   49   62   0.040   0.230        0
  2610  2106-26-349    -2   48   61   0.310  -0.070        0
  2611  2106-32-32     -2   48   61   0.310  -0.070        0
  2612  2106-42-362    -2   48   61   0.310  -0.070        0
  2613  2106-48-362    -2   48   61   0.310  -0.070        0
  2614  2106-56-34     -2   48   61   0.310  -0.070        0
  2615  2106-61-41     -2   48   61   0.310  -0.070        0
  2616  2106-66-54     -2   48   61   0.310  -0.070        0
  2617  2106-71-41     -2   48   61   0.310  -0.070        0
  2618  2106-71-365    -2   48   61   0.310  -0.070        0
  2619  1951-12-51     -2   50   62   0.070   0.140        0
  2620  1951-17-39     -2   50   62   0.070   0.140        0
  2621  1951-22-28     -2   50   62   0.070   0.140        0
  2622  1951-38-354    -2   50   62   0.070   0.140        0
  2623  1951-42-363    -2   50   62   0.070   0.140        0
  2624  1951-48-362    -2   50   62   0.070   0.140        0
  2625  1951-55-346    -2   50   62   0.070   0.140        0
  2626  1951-61-41     -2   50   62   0.070   0.140        0
  2627  1951-66-49     -2   50   62   0.070   0.140        0
  2628  1951-71-56     -2   50   62   0.070   0.140        0
  2629  1951-71-365    -2   50   62   0.070   0.140        0
  2630  2494-1-365      2   43   65   0.300  -0.360        0
  2631  2489-22-66     -2   43   63   0.450  -0.410        0
  2632  2489-27-87     -2   43   63   0.450  -0.410        0
  2633  2489-32-1      -2   43   63   0.450  -0.410        0
  2634  2489-33-60     -2   43   63   0.450  -0.410        0
  2635  2489-42-363     2   43   63   0.450  -0.410        0
  2636  2489-55-349     2   43   63   0.450  -0.410        0
  2637  2429-61-61      1   45   64  -0.370  -0.470        0
  2638  2429-66-25      1   45   64  -0.370  -0.470        0
  2639  2429-71-53      1   45   64  -0.370  -0.470        0
  2640  2457-22-65     -2   44   63   0.250  -0.440        0
  2641  2457-26-341    -2   44   63   0.250  -0.440        0
  2642  2457-31-335    -2   44   63   0.250  -0.440        0
  2643  2457-33-60     -2   44   63   0.250  -0.440        0
  2644  2457-42-363    -2   44   63   0.250  -0.440        0
  2645  2457-48-337    -2   44   63   0.250  -0.440        0
  2646  2457-56-18     -2   44   63   0.250  -0.440        0
  2647  2457-61-47     -2   44   63   0.250  -0.440        0
  2648  2457-66-32     -2   44   63   0.250  -0.440        0
  2649  2457-71-14     -2   44   63   0.250  -0.440        0
  2650  2457-71-42     -2   44   63   0.250  -0.440        0
  2651  2457-71-365    -2   44   63   0.250  -0.440        0
  2652  2426-61-61      1   45   63  -0.330  -0.350        0
  2653  2426-66-25      1   45   63  -0.330  -0.350        0
  2654  2378-22-66      2   46   63  -0.410   0.140        0
  2655  2378-26-341     2   46   63  -0.410   0.140        0
  2656  2378-31-335     2   46   63  -0.410   0.140        0
  2657  2377-7-1        1   46   63  -0.410   0.400        0
  2658  2377-12-92      1   46   63  -0.410   0.400        0
  2659  2382-1-365      1   46   63  -0.450  -0.350        0
  2660  2369-16-364     1   46   63  -0.220  -0.350        0
  2661  2397-10-255     2   45   64   0.320   0.410        0
  2662  2381-66-32      2   46   64  -0.450  -0.210        0
  2663  2368-56-25      2   46   65  -0.140  -0.460        0
  2664  2368-61-48      2   46   65  -0.140  -0.460        0
  2665  2364-56-25     -2   46   64  -0.180   0.410        0
  2666  2364-61-48     -2   46   64  -0.180   0.410        0
  2667  2364-66-24     -2   46   64  -0.180   0.410        0
  2668  2364-71-14     -2   46   64  -0.180   0.410        0
  2669  2364-71-365    -2   46   64  -0.180   0.410        0
  2670  2361-56-25      2   46   64  -0.140   0.150        0
  2671  2361-61-48      2   46   64  -0.140   0.150        0
  2672  2361-66-24      2   46   64  -0.140   0.150        0
  2673  2361-71-14      2   46   64  -0.140   0.150        0
  2674  2361-71-365     2   46   64  -0.140   0.150        0
  2675  2349-42-364    -2   46   64   0.050   0.440        0
  2676  2349-48-341    -2   46   64   0.050   0.440        0
  2677  2349-56-18     -2   46   64   0.050   0.440        0
  2678  2349-61-48     -2   46   64   0.050   0.440        0
  2679  2349-66-24     -2   46   64   0.050   0.440        0
  2680  2349-71-14     -2   46   64   0.050   0.440        0
  2681  2349-71-365    -2   46   64   0.050   0.440        0
  2682  2422-32-60      1   45   65  -0.060   0.450        0
  2683  2422-33-60      1   45   65  -0.060   0.450        0
  2684  2422-42-363     2   45   65  -0.060   0.450        0
  2685  2422-48-357     2   45   65  -0.060   0.450        0
  2686  2422-55-349     2   45   65  -0.060   0.450        0
  2687  2422-61-3       2   45   65  -0.060   0.450        0
  2688  2406-22-65      2   45   65   0.210  -0.170        0
  2689  2396-16-298     1   45   65   0.320  -0.100        0
  2690  2396-22-32      1   45   65   0.320  -0.100        0
  2691  2396-27-10      1   45   65   0.320  -0.100        0
  2692  2401-22-65      1   45   65   0.280  -0.330        0
  2693  2376-26-341    -2   46   65  -0.410  -0.100        0
  2694  2365-22-65     -2   46   65  -0.180  -0.330        0
  2695  2365-27-4      -2   46   65  -0.180  -0.330        0
  2696  2335-56-18     -2   46   65   0.090  -0.320        0
  2697  2335-60-322    -2   46   65   0.090  -0.320        0
  2698  2335-65-326    -2   46   65   0.090  -0.320        0
  2699  2335-71-365    -2   46   65   0.090  -0.320        0
  2700  2348-56-18     -3   46   65   0.160  -0.070        0
  2701  2348-61-48     -3   46   65   0.160  -0.070        0
  2702  2348-66-24     -3   46   65   0.160  -0.070        0
  2703  2348-71-365    -3   46   65   0.160  -0.070        0
  2704  2347-42-364     2   46   65   0.090   0.420        0
  2705  2347-48-337     2   46   65   0.090   0.420        0
  2706  2347-56-18      2   46   65   0.090   0.420        0
  2707  2347-61-48      2   46   65   0.090   0.420        0
  2708  2347-66-24      2   46   65   0.090   0.420        0
  2709  2380-61-48      1   46   66  -0.490  -0.420        0
  2710  2392-61-48      2   45   66   0.360  -0.420        0
  2711  2391-61-48      1   46   66  -0.490  -0.390        0
  2712  2391-66-25      1   46   66  -0.490  -0.390        0
  2713  2374-66-40      2   46   66   0.130  -0.030        0
  2714  2374-71-365     2   46   66   0.130  -0.030        0
  2715  2354-16-361     1   46   67   0.010   0.170        0
  2716  2353-48-274     1   46   67   0.010   0.270        0
  2717  2352-22-65      2   46   68   0.010  -0.080        0
  2718  2351-66-45      1   46   69   0.010   0.160        0
  2719  2351-71-42      1   46   69   0.010   0.160        0
  2720  2351-71-365     1   46   69   0.010   0.160        0
  2721  2341-55-348     1   46   70   0.080  -0.230        0
  2722  2341-66-45      1   46   70   0.080  -0.230        0
  2723  2341-71-42      1   46   70   0.080  -0.230        0
  2724  2341-71-365     1   46   70   0.080  -0.230        0
  2725  2350-42-355     2   46   69   0.010   0.450        0
  2726  2350-48-355     2   46   69   0.010   0.450        0
  2727  2350-55-348     2   46   69   0.010   0.450        0
  2728  2350-61-3       2   46   69   0.010   0.450        0
  2729  2350-71-42      2   46   69   0.010   0.450        0
  2730  2350-71-365     2   46   69   0.010   0.450        0
  2731  2358-48-306     2   46   70  -0.070   0.390        0
  2732  2215-1-357      2   47   74   0.420  -0.420        0
  2733  2215-6-295      2   47   74   0.420  -0.420        0
  2734  2215-10-349     2   47   74   0.420  -0.420        0
  2735  2215-22-68      2   47   74   0.420  -0.420        0
  2736  2215-31-335     2   47   74   0.420  -0.420        0
  2737  2215-33-1       2   47   74   0.420  -0.420        0
  2738  2215-39-60      2   47   74   0.420  -0.420        0
  2739  2215-42-356     2   47   74   0.420  -0.420        0
  2740  2215-48-336     2   47   74   0.420  -0.420        0
  2741  2164-48-337     1   48   73  -0.160  -0.270        0
  2742  2164-56-24      1   48   73  -0.160  -0.270        0
  2743  2164-61-54      1   48   73  -0.160  -0.270        0
  2744  2164-66-24      1   48   73  -0.160  -0.270        0
  2745  2164-71-41      1   48   73  -0.160  -0.270        0
  2746  2135-48-337    -2   48   74   0.070  -0.030        0
  2747  2135-56-24     -2   48   74   0.070  -0.030        0
  2748  2135-61-55     -2   48   74   0.070  -0.030        0
  2749  2135-66-26     -2   48   74   0.070  -0.030        0
  2750  2135-71-42     -2   48   74   0.070  -0.030        0
  2751  2238-56-23      1   47   72   0.080  -0.310        0
  2752  2334-22-67      2   46   71   0.240  -0.150        0
  2753  2334-26-349     2   46   71   0.240  -0.150        0
  2754  2334-33-60      2   46   71   0.240  -0.150        0
  2755  2334-42-363     2   46   71   0.240  -0.150        0
  2756  2334-48-274     2   46   71   0.240  -0.150        0
  2757  2334-55-321     2   46   71   0.240  -0.150        0
  2758  2334-60-319     2   46   71   0.240  -0.150        0
  2759  2334-65-326     2   46   71   0.240  -0.150        0
  2760  2334-71-14      2   46   71   0.240  -0.150        0
  2761  2334-71-42      2   46   71   0.240  -0.150        0
  2762  2334-71-365     2   46   71   0.240  -0.150        0
  2763  2225-55-321     1   47   71   0.350  -0.410        0
  2764  2223-55-279     1   47   71   0.380  -0.410        0
  2765  2223-61-47      1   47   71   0.380  -0.410        0
  2766  2223-66-32      1   47   71   0.380  -0.410        0
  2767  2223-71-14      1   47   71   0.380  -0.410        0
  2768  2223-71-365     1   47   71   0.380  -0.410        0
  2769  2224-55-321     1   47   71   0.350  -0.380        0
  2770  2224-61-47      1   47   71   0.350  -0.380        0
  2771  2224-66-32      1   47   71   0.350  -0.380        0
  2772  2142-48-274     2   48   71   0.000  -0.180        0
  2773  2150-48-306     2   48   71  -0.040  -0.180        0
  2774  2150-55-321     2   48   71  -0.040  -0.180        0
  2775  2141-48-274     2   48   71   0.110   0.010        0
  2776  2141-55-321     2   48   71   0.110   0.010        0
  2777  2141-61-47      2   48   71   0.110   0.010        0
  2778  2141-71-14      2   48   71   0.110   0.010        0
  2779  2141-71-365     2   48   71   0.110   0.010        0
  2780  2140-48-274     2   48   71   0.000   0.400        0
  2781  2140-55-321     2   48   71   0.000   0.400        0
  2782  2140-66-18     -2   48   71   0.000   0.400        0
  2783  2209-27-11      2   47   72   0.310   0.210        0
  2784  2209-31-351     2   47   72   0.310   0.210        0
  2785  2209-37-343     2   47   72   0.310   0.210        0
  2786  2208-56-23      1   47   72   0.460   0.210        0
  2787  2208-60-321     1   47   72   0.460   0.210        0
  2788  2208-65-299     1   47   72   0.460   0.210        0
  2789  2208-71-32      1   47   72   0.460   0.210        0
  2790  2208-71-365     1   47   72   0.460   0.210        0
  2791  2206-48-274    -2   47   72   0.460   0.310        0
  2792  2206-55-321    -2   47   72   0.460   0.310        0
  2793  2206-61-47     -2   47   72   0.460   0.310        0
  2794  2206-71-14     -2   47   72   0.460   0.310        0
  2795  2206-71-365    -2   47   72   0.460   0.310        0
  2796  2182-55-321     1   48   72  -0.270  -0.340        0
  2797  2174-55-279     1   48   72  -0.230  -0.310        0
  2798  2174-60-319     1   48   72  -0.230  -0.310        0
  2799  2174-65-326     1   48   72  -0.230  -0.310        0
  2800  2174-71-14      1   48   72  -0.230  -0.310        0
  2801  2174-71-365     1   48   72  -0.230  -0.310        0
  2802  2181-55-321     1   48   72  -0.270  -0.270        0
  2803  2181-61-47      1   48   72  -0.270  -0.270        0
  2804  2139-1-357      1   48   72   0.000  -0.080        0
  2805  2138-48-274     1   48   72   0.000   0.310        0
  2806  2138-55-321     1   48   72   0.000   0.310        0
  2807  2138-61-47      1   48   72   0.000   0.310        0
  2808  2138-66-24      1   48   72   0.000   0.310        0
  2809  2138-71-14      1   48   72   0.000   0.310        0
  2810  2138-71-365     1   48   72   0.000   0.310        0
  2811  2253-16-361     1   47   70  -0.230  -0.320        0
  2812  2251-48-274    -2   47   71  -0.230  -0.480        0
  2813  2251-55-321    -2   47   71  -0.230  -0.480        0
  2814  2314-12-116    -2   46   69   0.280   0.420        0
  2815  2314-22-67      2   46   69   0.280   0.420        0
  2816  2314-33-60      2   46   69   0.280   0.420        0
  2817  2290-7-322      1   46   69   0.470   0.160        0
  2818  2290-10-32      1   46   69   0.470   0.160        0
  2819  2290-42-364     1   46   69   0.470   0.160        0
  2820  2290-48-355     1   46   69   0.470   0.160        0
  2821  2290-55-348     1   46   69   0.470   0.160        0
  2822  2290-65-354     1   46   69   0.470   0.160        0
  2823  2290-71-42      1   46   69   0.470   0.160        0
  2824  2290-71-365     1   46   69   0.470   0.160        0
  2825  2286-42-357    -2   47   69  -0.490   0.450        0
  2826  2286-48-355    -2   47   69  -0.490   0.450        0
  2827  2286-61-3      -2   47   69  -0.490   0.450        0
  2828  2286-66-45     -2   47   69  -0.490   0.450        0
  2829  2287-42-357     1   47   69  -0.490   0.250        0
  2830  2287-61-3       1   47   69  -0.490   0.250        0
  2831  2287-71-42      1   47   69  -0.490   0.250        0
  2832  2287-71-365     1   47   69  -0.490   0.250        0
  2833  2278-22-67     -2   47   69  -0.460   0.190        0
  2834  2278-26-362    -2   47   69  -0.460   0.190        0
  2835  2278-31-335    -2   47   69  -0.460   0.190        0
  2836  2278-33-60     -2   47   69  -0.460   0.190        0
  2837  2278-48-274    -2   47   69  -0.460   0.190        0
  2838  2129-66-40      2   48   69   0.110   0.000        0
  2839  2129-71-42      2   48   69   0.110   0.000        0
  2840  2129-71-365     2   48   69   0.110   0.000        0
  2841  2146-7-1        1   48   69   0.000   0.190        0
  2842  2146-11-86      1   48   69   0.000   0.190        0
  2843  2146-22-67      1   48   69   0.000   0.190        0
  2844  2146-37-263     1   48   69   0.000   0.190        0
  2845  2147-42-363     1   48   69   0.000   0.160        0
  2846  2147-48-362     1   48   69   0.000   0.160        0
  2847  2147-55-349     1   48   69   0.000   0.160        0
  2848  2145-2-132      1   48   69   0.000   0.450        0
  2849  2144-2-132      1   48   70   0.000   0.200        0
  2850  2126-48-274     2   48   70  -0.310   0.330        0
  2851  2126-55-321     2   48   70  -0.310   0.330        0
  2852  2126-61-47      2   48   70  -0.310   0.330        0
  2853  2126-71-14      2   48   70  -0.310   0.330        0
  2854  2126-71-365     2   48   70  -0.310   0.330        0
  2855  2315-10-262     1   46   68   0.280   0.150        0
  2856  2288-10-262     2   47   68  -0.490   0.440        0
  2857  2248-56-23     -2   47   68  -0.030  -0.050        0
  2858  2239-16-361     1   47   68   0.080   0.020        0
  2859  2239-22-32      1   47   68   0.080   0.020        0
  2860  2239-27-10      1   47   68   0.080   0.020        0
  2861  2239-56-23      1   47   68   0.080   0.020        0
  2862  2267-56-25      1   47   67  -0.340  -0.120        0
  2863  2255-22-65      1   47   67  -0.220   0.430        0
  2864  2255-32-60      1   47   67  -0.220   0.430        0
  2865  2255-38-60      1   47   67  -0.220   0.430        0
  2866  2240-56-25      1   47   68  -0.030  -0.050        0
  2867  2240-66-32      1   47   68  -0.030  -0.050        0
  2868  2240-71-54      1   47   68  -0.030  -0.050        0
  2869  2114-61-49      2   48   68  -0.380   0.250        0
  2870  2114-66-40      2   48   68  -0.380   0.250        0
  2871  2114-71-42      2   48   68  -0.380   0.250        0
  2872  2114-71-365     2   48   68  -0.380   0.250        0
  2873  2191-56-23      1   48   68  -0.380   0.180        0
  2874  2191-61-61      1   48   68  -0.380   0.180        0
  2875  2191-66-25      1   48   68  -0.380   0.180        0
  2876  2210-48-334     1   47   69   0.460  -0.460        0
  2877  2210-55-321     1   47   69   0.460  -0.460        0
  2878  2210-61-47      1   47   69   0.460  -0.460        0
  2879  2210-66-24      1   47   69   0.460  -0.460        0
  2880  2210-71-42      1   47   69   0.460  -0.460        0
  2881  2210-71-365     1   47   69   0.460  -0.460        0
  2882  2162-48-274     2   48   68  -0.150   0.180        0
  2883  2162-65-354     2   48   68  -0.150   0.180        0
  2884  2162-71-42      2   48   68  -0.150   0.180        0
  2885  2162-71-365     2   48   68  -0.150   0.180        0
  2886  2298-61-48     -3   46   66   0.390  -0.390        0
  2887  2298-66-24     -3   46   66   0.390  -0.390        0
  2888  2298-71-14     -3   46   66   0.390  -0.390        0
  2889  2298-71-365    -3   46   66   0.390  -0.390        0
  2890  2250-22-69      2   47   65  -0.150   0.160        0
  2891  2250-27-61      2   47   65  -0.150   0.160        0
  2892  2227-42-363    -3   47   65   0.310  -0.300        0
  2893  2227-48-365    -3   47   65   0.310  -0.300        0
  2894  2227-55-349    -3   47   65   0.310  -0.300        0
  2895  2227-61-54     -3   47   65   0.310  -0.300        0
  2896  2227-66-45     -3   47   65   0.310  -0.300        0
  2897  2227-71-49     -3   47   65   0.310  -0.300        0
  2898  2227-71-365    -3   47   65   0.310  -0.300        0
  2899  2152-22-68      1   48   66  -0.040   0.170        0
  2900  2263-10-144     1   47   63  -0.300  -0.090        0
  2901  2276-22-61     -2   47   63  -0.340  -0.020        0
  2902  2276-26-301    -2   47   63  -0.340  -0.020        0
  2903  2276-48-362    -2   47   63  -0.340  -0.020        0
  2904  2276-55-349    -2   47   63  -0.340  -0.020        0
  2905  2276-61-33     -2   47   63  -0.340  -0.020        0
  2906  2276-66-32     -2   47   63  -0.340  -0.020        0
  2907  2276-71-14     -2   47   63  -0.340  -0.020        0
  2908  2276-71-41     -2   47   63  -0.340  -0.020        0
  2909  2276-71-365    -2   47   63  -0.340  -0.020        0
  2910  2229-61-33      2   47   63   0.350   0.440        0
  2911  2229-66-32      2   47   63   0.350   0.440        0
  2912  2229-71-14      2   47   63   0.350   0.440        0
  2913  2229-71-41      2   47   63   0.350   0.440        0
  2914  2229-71-365     2   47   63   0.350   0.440        0
  2915  2235-42-335     1   47   63   0.240   0.240        0
  2916  2130-8-49       1   48   63   0.080  -0.340        0
  2917  2130-12-58      1   48   63   0.080  -0.340        0
  2918  2130-17-87      1   48   63   0.080  -0.340        0
  2919  2130-22-79      1   48   63   0.080  -0.340        0
  2920  2130-32-60      1   48   63   0.080  -0.340        0
  2921  2130-42-363     1   48   63   0.080  -0.340        0
  2922  2130-48-362     1   48   63   0.080  -0.340        0
  2923  2153-48-362    -2   48   63  -0.040  -0.380        0
  2924  2153-55-349    -2   48   63  -0.040  -0.380        0
  2925  2153-61-33     -2   48   63  -0.040  -0.380        0
  2926  2153-71-41     -2   48   63  -0.040  -0.380        0
  2927  2153-71-365    -2   48   63  -0.040  -0.380        0
  2928  2217-66-32      1   47   64   0.390   0.280        0
  2929  2231-22-65      1   47   64   0.280  -0.340        0
  2930  2231-42-363     1   47   64   0.280  -0.340        0
  2931  2231-48-362     1   47   64   0.280  -0.340        0
  2932  2231-55-349     1   47   64   0.280  -0.340        0
  2933  2231-61-54      1   47   64   0.280  -0.340        0
  2934  2231-66-49      1   47   64   0.280  -0.340        0
  2935  2231-71-41      1   47   64   0.280  -0.340        0
  2936  2231-71-365     1   47   64   0.280  -0.340        0
  2937  2228-42-363    -2   47   64   0.310  -0.300        0
  2938  2228-48-362    -2   47   64   0.310  -0.300        0
  2939  2228-55-349    -2   47   64   0.310  -0.300        0
  2940  2228-61-54     -2   47   64   0.310  -0.300        0
  2941  2228-66-49     -2   47   64   0.310  -0.300        0
  2942  2228-71-41     -2   47   64   0.310  -0.300        0
  2943  2228-71-365    -2   47   64   0.310  -0.300        0
  2944  2056-12-58      1   49   64  -0.190  -0.080        0
  2945  2056-22-66      1   49   64  -0.190  -0.080        0
  2946  2056-27-61      1   49   64  -0.190  -0.080        0
  2947  2032-7-32       1   49   63   0.040   0.270        0
  2948  2032-12-58      1   49   63   0.040   0.270        0
  2949  2032-32-83      1   49   63   0.040   0.270        0
  2950  2033-42-363    -2   49   63   0.040   0.270        0
  2951  2033-48-362    -2   49   63   0.040   0.270        0
  2952  2033-56-34     -2   49   63   0.040   0.270        0
  2953  2033-61-56     -2   49   63   0.040   0.270        0
  2954  2033-66-54     -2   49   63   0.040   0.270        0
  2955  2033-71-49     -2   49   63   0.040   0.270        0
  2956  2033-71-365    -2   49   63   0.040   0.270        0
  2957  2000-37-34      1   50   63  -0.470   0.180        0
  2958  2000-55-349     1   50   63  -0.470   0.180        0
  2959  2004-48-357     2   49   63   0.490   0.270        0
  2960  2004-71-49      2   49   63   0.490   0.270        0
  2961  2004-71-365     2   49   63   0.490   0.270        0
  2962  2019-17-82     -2   49   64   0.300   0.020        0
  2963  2019-22-69     -2   49   64   0.300   0.020        0
  2964  2019-42-335    -2   49   64   0.300   0.020        0
  2965  2019-48-365    -2   49   64   0.300   0.020        0
  2966  2019-66-40     -2   49   64   0.300   0.020        0
  2967  2019-71-49     -2   49   64   0.300   0.020        0
  2968  2019-71-365    -2   49   64   0.300   0.020        0
  2969  2015-66-40      2   49   64   0.300  -0.080        0
  2970  2015-71-49      2   49   64   0.300  -0.080        0
  2971  2015-71-365     2   49   64   0.300  -0.080        0
  2972  2023-42-363    -3   49   64   0.300  -0.010        0
  2973  2023-48-365    -3   49   64   0.300  -0.010        0
  2974  2023-55-349    -3   49   64   0.300  -0.010        0
  2975  2023-61-54     -3   49   64   0.300  -0.010        0
  2976  2023-71-49     -3   49   64   0.300  -0.010        0
  2977  2023-71-365    -3   49   64   0.300  -0.010        0
  2978  2060-48-365    -2   49   66  -0.230   0.460        0
  2979  2060-55-356    -2   49   66  -0.230   0.460        0
  2980  2060-61-54     -2   49   66  -0.230   0.460        0
  2981  2060-66-19     -2   49   66  -0.230   0.460        0
  2982  2060-71-42     -2   49   66  -0.230   0.460        0
  2983  2060-71-365    -2   49   66  -0.230   0.460        0
  2984  2115-22-66      2   48   65   0.270   0.190        0
  2985  2105-42-363    -2   48   65   0.350   0.130        0
  2986  2105-48-362    -2   48   65   0.350   0.130        0
  2987  2105-56-33     -2   48   65   0.350   0.130        0
  2988  2105-61-33     -2   48   65   0.350   0.130        0
  2989  2105-66-32     -2   48   65   0.350   0.130        0
  2990  2105-71-42     -2   48   65   0.350   0.130        0
  2991  2105-71-365    -2   48   65   0.350   0.130        0
  2992  2098-65-354     2   48   65   0.380   0.130        0
  2993  2098-71-42      2   48   65   0.380   0.130        0
  2994  2098-71-365     2   48   65   0.380   0.130        0
  2995  2103-42-363    -2   48   65   0.350   0.000        0
  2996  2103-48-362    -2   48   65   0.350   0.000        0
  2997  2103-61-33     -2   48   65   0.350   0.000        0
  2998  2103-66-32     -2   48   65   0.350   0.000        0
  2999  2103-71-42     -2   48   65   0.350   0.000        0
  3000  2103-71-365    -2   48   65   0.350   0.000        0
  3001  2055-22-66      1   49   65  -0.200   0.420        0
  3002  2055-32-83      1   49   65  -0.200   0.420        0
  3003  2014-12-66      1   49   66   0.340   0.000        0
  3004  2014-22-69      1   49   66   0.340   0.000        0
  3005  2014-27-3       1   49   66   0.340   0.000        0
  3006  2014-42-363     1   49   66   0.340   0.000        0
  3007  2014-48-357     1   49   66   0.340   0.000        0
  3008  2014-66-19      1   49   66   0.340   0.000        0
  3009  2014-71-42      1   49   66   0.340   0.000        0
  3010  2014-71-365     1   49   66   0.340   0.000        0
  3011  2013-42-363    -2   49   66   0.340  -0.030        0
  3012  2013-48-357    -2   49   66   0.340  -0.030        0
  3013  2013-55-350    -2   49   66   0.340  -0.030        0
  3014  2013-61-33     -2   49   66   0.340  -0.030        0
  3015  2013-66-19     -2   49   66   0.340  -0.030        0
  3016  2013-71-42     -2   49   66   0.340  -0.030        0
  3017  2013-71-365    -2   49   66   0.340  -0.030        0
  3018  1974-22-79      1   50   66  -0.160  -0.030        0
  3019  1974-26-307     1   50   66  -0.160  -0.030        0
  3020  1974-42-363     1   50   66  -0.160  -0.030        0
  3021  1974-48-357     1   50   66  -0.160  -0.030        0
  3022  1966-42-363    -2   50   66  -0.090  -0.160        0
  3023  1966-48-350    -2   50   66  -0.090  -0.160        0
  3024  1966-55-350    -2   50   66  -0.090  -0.160        0
  3025  1966-61-33     -2   50   66  -0.090  -0.160        0
  3026  1966-66-19     -2   50   66  -0.090  -0.160        0
  3027  1966-71-49     -2   50   66  -0.090  -0.160        0
  3028  1966-71-365    -2   50   66  -0.090  -0.160        0
  3029  1972-71-49      2   50   66  -0.160   0.010        0
  3030  1972-71-365     2   50   66  -0.160   0.010        0
  3031  2036-11-305     1   49   68   0.030   0.410        0
  3032  2035-48-365    -3   49   68   0.030   0.440        0
  3033  2035-56-18     -3   49   68   0.030   0.440        0
  3034  2035-61-54     -3   49   68   0.030   0.440        0
  3035  2035-66-45     -3   49   68   0.030   0.440        0
  3036  2035-71-42     -3   49   68   0.030   0.440        0
  3037  2035-71-365    -3   49   68   0.030   0.440        0
  3038  1999-22-69      2   50   67  -0.470  -0.080        0
  3039  1999-26-349     2   50   67  -0.470  -0.080        0
  3040  1999-32-73      2   50   67  -0.470  -0.080        0
  3041  1999-42-363     2   50   67  -0.470  -0.080        0
  3042  1999-48-357     2   50   67  -0.470  -0.080        0
  3043  1999-55-353     2   50   67  -0.470  -0.080        0
  3044  1999-60-309     2   50   67  -0.470  -0.080        0
  3045  1999-66-28      2   50   67  -0.470  -0.080        0
  3046  1999-71-42      2   50   67  -0.470  -0.080        0
  3047  1999-71-365     2   50   67  -0.470  -0.080        0
  3048  1957-12-66      1   50   67   0.030   0.180        0
  3049  1957-22-79      1   50   67   0.030   0.180        0
  3050  1957-27-3       1   50   67   0.030   0.180        0
  3051  1957-32-60      1   50   67   0.030   0.180        0
  3052  1957-42-363     1   50   67   0.030   0.180        0
  3053  1957-48-357     1   50   67   0.030   0.180        0
  3054  1957-55-353     1   50   67   0.030   0.180        0
  3055  1957-60-306     1   50   67   0.030   0.180        0
  3056  1957-66-19      1   50   67   0.030   0.180        0
  3057  1957-71-42      1   50   67   0.030   0.180        0
  3058  1957-71-365     1   50   67   0.030   0.180        0
  3059  2125-48-306     1   48   70   0.110   0.460        0
  3060  2125-55-321     1   48   70   0.110   0.460        0
  3061  2086-48-274     2   48   70   0.460   0.360        0
  3062  2086-56-48      2   48   70   0.460   0.360        0
  3063  2086-61-47      2   48   70   0.460   0.360        0
  3064  2086-66-26      2   48   70   0.460   0.360        0
  3065  2086-71-14      2   48   70   0.460   0.360        0
  3066  2086-71-365     2   48   70   0.460   0.360        0
  3067  2102-26-349    -2   48   70   0.340  -0.260        0
  3068  2102-48-274    -2   48   70   0.340  -0.260        0
  3069  2102-55-321    -2   48   70   0.340  -0.260        0
  3070  2102-60-319    -2   48   70   0.340  -0.260        0
  3071  2102-66-1      -2   48   70   0.340  -0.260        0
  3072  2102-71-42     -2   48   70   0.340  -0.260        0
  3073  2102-71-365    -2   48   70   0.340  -0.260        0
  3074  2054-39-31     -2   49   70  -0.200  -0.350        0
  3075  2054-48-357    -2   49   70  -0.200  -0.350        0
  3076  2054-55-349    -2   49   70  -0.200  -0.350        0
  3077  2054-61-3      -2   49   70  -0.200  -0.350        0
  3078  2054-66-40     -2   49   70  -0.200  -0.350        0
  3079  2054-71-42     -2   49   70  -0.200  -0.350        0
  3080  2054-71-365    -2   49   70  -0.200  -0.350        0
  3081  2063-22-69      1   49   70  -0.160   0.430        0
  3082  1996-11-86      1   50   69  -0.470   0.450        0
  3083  1997-22-60      1   50   69  -0.470   0.420        0
  3084  1997-32-60      1   50   69  -0.470   0.420        0
  3085  1997-55-349     1   50   69  -0.470   0.420        0
  3086  1997-65-354     1   50   69  -0.470   0.420        0
  3087  1997-71-42      1   50   69  -0.470   0.420        0
  3088  1997-71-365     1   50   69  -0.470   0.420        0
  3089  1949-48-334     1   50   70  -0.010  -0.420        0
  3090  1949-56-17      1   50   70  -0.010  -0.420        0
  3091  1942-56-17     -2   50   70   0.100  -0.450        0
  3092  1942-61-53     -2   50   70   0.100  -0.450        0
  3093  1942-66-19     -2   50   70   0.100  -0.450        0
  3094  1942-71-42     -2   50   70   0.100  -0.450        0
  3095  1942-71-365    -2   50   70   0.100  -0.450        0
  3096  1943-33-314     2   50   68   0.100  -0.110        0
  3097  2078-65-355     2   49   72  -0.390   0.470        0
  3098  2078-71-42      2   49   72  -0.390   0.470        0
  3099  2078-71-365     2   49   72  -0.390   0.470        0
  3100  2072-16-364     1   49   72  -0.390  -0.180        0
  3101  2072-27-10      1   49   72  -0.390  -0.180        0
  3102  2030-42-362    -2   49   72   0.070   0.380        0
  3103  2030-48-357    -2   49   72   0.070   0.380        0
  3104  2030-55-348    -2   49   72   0.070   0.380        0
  3105  2030-61-3      -2   49   72   0.070   0.380        0
  3106  2030-65-355    -2   49   72   0.070   0.380        0
  3107  2030-71-42     -2   49   72   0.070   0.380        0
  3108  2030-71-365    -2   49   72   0.070   0.380        0
  3109  2082-22-32     -2   48   71   0.490   0.170        0
  3110  2081-8-101      2   48   71   0.460   0.340        0
  3111  2081-12-109     2   48   71   0.460   0.340        0
  3112  2081-22-68      2   48   71   0.460   0.340        0
  3113  2081-42-364     2   48   71   0.460   0.340        0
  3114  2081-56-18      2   48   71   0.460   0.340        0
  3115  2081-71-13      2   48   71   0.460   0.340        0
  3116  2081-71-365     2   48   71   0.460   0.340        0
  3117  2101-8-51       1   48   71   0.340  -0.120        0
  3118  2101-11-86      1   48   71   0.340  -0.120        0
  3119  2101-22-32      1   48   71   0.340  -0.120        0
  3120  2101-27-10      1   48   71   0.340  -0.120        0
  3121  1986-27-81     -2   50   71  -0.320   0.010        0
  3122  1986-42-362    -2   50   71  -0.320   0.010        0
  3123  1986-48-334    -2   50   71  -0.320   0.010        0
  3124  1986-55-321    -2   50   71  -0.320   0.010        0
  3125  1986-61-47     -2   50   71  -0.320   0.010        0
  3126  1986-66-32     -2   50   71  -0.320   0.010        0
  3127  1986-71-14     -2   50   71  -0.320   0.010        0
  3128  1986-71-42     -2   50   71  -0.320   0.010        0
  3129  1986-71-365    -2   50   71  -0.320   0.010        0
  3130  1956-32-83      1   50   72   0.020  -0.300        0
  3131  1956-37-34      1   50   72   0.020  -0.300        0
  3132  1948-48-274    -2   50   72   0.060   0.480        0
  3133  2117-8-182      2   48   75   0.220  -0.480        0
  3134  2093-66-26     -2   49   75  -0.470  -0.480        0
  3135  2071-16-364     2   49   73  -0.390  -0.100        0
  3136  2053-56-33      1   49   73  -0.200  -0.460        0
  3137  2053-65-355     1   49   73  -0.200  -0.460        0
  3138  2053-71-43      1   49   73  -0.200  -0.460        0
  3139  2053-71-365     1   49   73  -0.200  -0.460        0
  3140  2046-61-3       1   49   73  -0.090  -0.200        0
  3141  2046-65-355     1   49   73  -0.090  -0.200        0
  3142  2046-71-49      1   49   73  -0.090  -0.200        0
  3143  2046-71-365     1   49   73  -0.090  -0.200        0
  3144  2029-66-45      1   49   73   0.100  -0.390        0
  3145  2029-71-43      1   49   73   0.100  -0.390        0
  3146  2029-71-365     1   49   73   0.100  -0.390        0
  3147  2026-71-43      1   49   73   0.100  -0.170        0
  3148  2026-71-365     1   49   73   0.100  -0.170        0
  3149  2028-71-43     -2   49   73   0.100  -0.130        0
  3150  2028-71-365    -2   49   73   0.100  -0.130        0
  3151  2048-56-33      2   49   73  -0.160   0.450        0
  3152  2048-65-355     2   49   73  -0.160   0.450        0
  3153  2048-71-49      2   49   73  -0.160   0.450        0
  3154  2048-71-365     2   49   73  -0.160   0.450        0
  3155  2049-55-347     2   49   73  -0.160   0.290        0
  3156  2049-65-355     2   49   73  -0.160   0.290        0
  3157  2049-71-43      2   49   73  -0.160   0.290        0
  3158  2049-71-365     2   49   73  -0.160   0.290        0
  3159  1995-22-69      1   50   73  -0.480   0.000        0
  3160  1995-26-280     1   50   73  -0.480   0.000        0
  3161  1995-42-355     1   50   73  -0.480   0.000        0
  3162  1995-48-357     1   50   73  -0.480   0.000        0
  3163  1995-56-17      1   50   73  -0.480   0.000        0
  3164  1995-61-3       1   50   73  -0.480   0.000        0
  3165  1995-65-355     1   50   73  -0.480   0.000        0
  3166  1995-71-43      1   50   73  -0.480   0.000        0
  3167  1995-71-365     1   50   73  -0.480   0.000        0
  3168  1947-22-79      1   50   73   0.060   0.000        0
  3169  1947-26-349     1   50   73   0.060   0.000        0
  3170  1947-32-73      1   50   73   0.060   0.000        0
  3171  1947-39-31      1   50   73   0.060   0.000        0
  3172  1947-48-355     1   50   73   0.060   0.000        0
  3173  1947-55-348     1   50   73   0.060   0.000        0
  3174  1947-61-3       1   50   73   0.060   0.000        0
  3175  1947-66-1       1   50   73   0.060   0.000        0
  3176  1947-71-43      1   50   73   0.060   0.000        0
  3177  1947-71-365     1   50   73   0.060   0.000        0
  3178  1985-56-25     -2   50   74  -0.320  -0.420        0
  3179  1985-66-33     -2   50   74  -0.320  -0.420        0
  3180  1985-71-42     -2   50   74  -0.320  -0.420        0
  3181  2017-42-363    -2   50   73  -0.360   0.130        0
  3182  2017-48-337    -2   50   73  -0.360   0.130        0
  3183  2017-56-24     -2   50   73  -0.360   0.130        0
  3184  2017-61-55     -2   50   73  -0.360   0.130        0
  3185  2017-66-24     -2   50   73  -0.360   0.130        0
  3186  2017-71-42     -2   50   73  -0.360   0.130        0
  3187  1941-16-364     1   50   75   0.100  -0.410        0
  3188  2339-1-365      2   46   75   0.080   0.460        0
  3189  2339-12-113     2   46   75   0.080   0.460        0
  3190  2339-22-74      2   46   75   0.080   0.460        0
  3191  2435-11-80      2   45   78  -0.460  -0.330        0
  3192  2435-22-72      2   45   78  -0.460  -0.330        0
  3193  2443-48-336     2   45   78  -0.420  -0.230        0
  3194  2443-56-20      2   45   78  -0.420  -0.230        0
  3195  2443-61-54      2   45   78  -0.420  -0.230        0
  3196  2443-66-24      2   45   78  -0.420  -0.230        0
  3197  2443-71-42      2   45   78  -0.420  -0.230        0
  3198  2379-22-74      2   46   82  -0.470  -0.490        0
  3199  2379-42-356     2   46   82  -0.470  -0.490        0
  3200  2379-48-336     2   46   82  -0.470  -0.490        0
  3201  2379-56-19      2   46   82  -0.470  -0.490        0
  3202  2379-61-55      2   46   82  -0.470  -0.490        0
  3203  2379-66-27      2   46   82  -0.470  -0.490        0
  3204  2379-71-42      2   46   82  -0.470  -0.490        0
  3205  2375-42-357     2   46   81  -0.430   0.410        0
  3206  2375-48-350     2   46   81  -0.430   0.410        0
  3207  2375-55-348     2   46   81  -0.430   0.410        0
  3208  2375-61-48      2   46   81  -0.430   0.410        0
  3209  2375-65-350     2   46   81  -0.430   0.410        0
  3210  2375-71-55      2   46   81  -0.430   0.410        0
  3211  2375-71-365     2   46   81  -0.430   0.410        0
  3212  2338-22-74      2   46   81   0.070   0.180        0
  3213  2338-48-355     2   46   81   0.070   0.180        0
  3214  2338-56-5       2   46   81   0.070   0.180        0
  3215  2338-61-48      2   46   81   0.070   0.180        0
  3216  2338-65-350     2   46   81   0.070   0.180        0
  3217  2338-71-55      2   46   81   0.070   0.180        0
  3218  2338-71-365     2   46   81   0.070   0.180        0
  3219  2205-22-74      3   47   85   0.440   0.250        0
  3220  2200-22-85      3   47   86   0.480  -0.490        0
  3221  2189-61-55      3   48   86  -0.370   0.420        0
  3222  2173-61-60      2   48   84  -0.250  -0.080        0
  3223  2323-22-74      2   46   81   0.220   0.090        0
  3224  2193-48-336     1   48   81  -0.400  -0.270        0
  3225  2193-56-19      1   48   81  -0.400  -0.270        0
  3226  2193-61-55      1   48   81  -0.400  -0.270        0
  3227  2193-66-27      1   48   81  -0.400  -0.270        0
  3228  2193-71-42      1   48   81  -0.400  -0.270        0
  3229  2100-12-113     2   48   82   0.090   0.160        0
  3230  2100-22-75      2   48   82   0.090   0.160        0
  3231  2100-42-357     2   48   82   0.090   0.160        0
  3232  2100-48-336     2   48   82   0.090   0.160        0
  3233  2100-55-347     2   48   82   0.090   0.160        0
  3234  2100-61-48      2   48   82   0.090   0.160        0
  3235  2100-65-356     2   48   82   0.090   0.160        0
  3236  2100-71-42      2   48   82   0.090   0.160        0
  3237  2100-71-54      2   48   82   0.090   0.160        0
  3238  2100-71-365     2   48   82   0.090   0.160        0
  3239  2324-27-11      2   46   80   0.220   0.370        0
  3240  2324-38-91      2   46   80   0.220   0.370        0
  3241  2324-42-356     2   46   80   0.220   0.370        0
  3242  2324-56-20      2   46   80   0.220   0.370        0
  3243  2324-66-28      2   46   80   0.220   0.370        0
  3244  2324-71-63      2   46   80   0.220   0.370        0
  3245  2285-22-74      2   46   80   0.490   0.010        0
  3246  2285-32-67      2   46   80   0.490   0.010        0
  3247  2285-38-60      2   46   80   0.490   0.010        0
  3248  2285-71-63      2   46   80   0.490   0.010        0
  3249  2119-42-357     1   48   80   0.180  -0.210        0
  3250  2119-48-355     1   48   80   0.180  -0.210        0
  3251  2119-55-348     1   48   80   0.180  -0.210        0
  3252  2119-61-49      1   48   80   0.180  -0.210        0
  3253  2119-71-55      1   48   80   0.180  -0.210        0
  3254  2119-71-365     1   48   80   0.180  -0.210        0
  3255  2184-33-274    -2   48   81  -0.320  -0.400        0
  3256  2179-33-26      2   48   77  -0.390  -0.040        0
  3257  2179-48-337     2   48   77  -0.390  -0.040        0
  3258  2179-56-20      2   48   77  -0.390  -0.040        0
  3259  2179-66-28      2   48   77  -0.390  -0.040        0
  3260  2297-42-355     2   46   77   0.420  -0.500        0
  3261  2297-48-336     2   46   77   0.420  -0.500        0
  3262  2297-56-20      2   46   77   0.420  -0.500        0
  3263  2297-61-54      2   46   77   0.420  -0.500        0
  3264  2297-66-21      2   46   77   0.420  -0.500        0
  3265  2297-71-41      2   46   77   0.420  -0.500        0
  3266  2185-42-357     2   48   76  -0.430   0.020        0
  3267  2185-48-355     2   48   76  -0.430   0.020        0
  3268  2185-55-347     2   48   76  -0.430   0.020        0
  3269  2185-66-45      2   48   76  -0.430   0.020        0
  3270  2185-71-344     2   48   76  -0.430   0.020        0
  3271  2134-16-361     2   48   76   0.030   0.310        0
  3272  2134-22-32      2   48   76   0.030   0.310        0
  3273  2134-27-11      2   48   76   0.030   0.310        0
  3274  2134-48-357     2   48   76   0.030   0.310        0
  3275  2134-55-347     2   48   76   0.030   0.310        0
  3276  2134-66-45      2   48   76   0.030   0.310        0
  3277  2134-71-344     2   48   76   0.030   0.310        0
  3278  2091-61-55      1   48   76   0.410  -0.270        0
  3279  2091-66-26      1   48   76   0.410  -0.270        0
  3280  2091-71-55      1   48   76   0.410  -0.270        0
  3281  2097-48-337     1   48   74   0.410  -0.160        0
  3282  2097-56-23      1   48   74   0.410  -0.160        0
  3283  2097-66-26      1   48   74   0.410  -0.160        0
  3284  2097-71-55      1   48   74   0.410  -0.160        0
  3285  2068-12-281     1   49   77  -0.360  -0.460        0
  3286  2070-48-357     1   49   77  -0.400  -0.460        0
  3287  2070-55-348     1   49   77  -0.400  -0.460        0
  3288  2070-60-348     1   49   77  -0.400  -0.460        0
  3289  2070-66-1       1   49   77  -0.400  -0.460        0
  3290  2070-71-365     1   49   77  -0.400  -0.460        0
  3291  2027-39-31      1   49   75   0.100   0.400        0
  3292  2025-66-26      1   49   75   0.220   0.340        0
  3293  2025-71-55      1   49   75   0.220   0.340        0
  3294  2010-32-67      1   49   75   0.370  -0.380        0
  3295  1954-32-67      1   50   76  -0.140   0.480        0
  3296  1954-48-355     1   50   76  -0.140   0.480        0
  3297  1954-55-347     1   50   76  -0.140   0.480        0
  3298  1954-66-45      1   50   76  -0.140   0.480        0
  3299  1954-71-344     1   50   76  -0.140   0.480        0
  3300  1963-32-85      1   50   76  -0.020   0.150        0
  3301  1963-42-357     1   50   76  -0.020   0.150        0
  3302  1963-48-355     1   50   76  -0.020   0.150        0
  3303  1963-55-348     1   50   76  -0.020   0.150        0
  3304  1963-61-49      1   50   76  -0.020   0.150        0
  3305  1963-65-356     1   50   76  -0.020   0.150        0
  3306  1963-71-365     1   50   76  -0.020   0.150        0
  3307  2090-27-11      1   48   78   0.410   0.030        0
  3308  2065-66-45      2   49   78  -0.360   0.000        0
  3309  2065-71-365     2   49   78  -0.360   0.000        0
  3310  2003-71-365     1   49   78   0.480   0.430        0
  3311  1984-42-355     1   50   78  -0.330   0.360        0
  3312  1984-48-336     1   50   78  -0.330   0.360        0
  3313  2116-65-350     2   48   80   0.210  -0.310        0
  3314  2047-56-19      1   49   80  -0.170  -0.270        0
  3315  2047-61-55      1   49   80  -0.170  -0.270        0
  3316  2047-66-21      1   49   80  -0.170  -0.270        0
  3317  2044-56-19      1   49   79   0.020   0.170        0
  3318  2044-61-55      1   49   79   0.020   0.170        0
  3319  2044-66-21      1   49   79   0.020   0.170        0
  3320  2044-71-41      1   49   79   0.020   0.170        0
  3321  2018-34-212    -2   49   80   0.210  -0.470        0
  3322  2012-1-52       1   49   79   0.330  -0.220        0
  3323  2012-42-335     1   49   79   0.330  -0.220        0
  3324  2012-48-355     1   49   79   0.330  -0.220        0
  3325  2012-55-348     1   49   79   0.330  -0.220        0
  3326  2012-66-1       1   49   79   0.330  -0.220        0
  3327  2012-71-365     1   49   79   0.330  -0.220        0
  3328  1979-56-23      1   50   79  -0.290   0.170        0
  3329  1979-61-55      1   50   79  -0.290   0.170        0
  3330  2002-16-361     2   49   80   0.480   0.210        0
  3331  2002-27-12      2   49   80   0.480   0.210        0
  3332  1961-56-23      2   50   80   0.010  -0.340        0
  3333  1961-66-26      2   50   80   0.010  -0.340        0
  3334  1961-71-41      2   50   80   0.010  -0.340        0
  3335  2080-42-356     2   48   82   0.480   0.100        0
  3336  2080-48-350     2   48   82   0.480   0.100        0
  3337  2080-55-347     2   48   82   0.480   0.100        0
  3338  2080-66-45      2   48   82   0.480   0.100        0
  3339  2042-55-347     2   49   83  -0.030  -0.280        0
  3340  2042-65-356     2   49   83  -0.030  -0.280        0
  3341  2042-71-54      2   49   83  -0.030  -0.280        0
  3342  2042-71-365     2   49   83  -0.030  -0.280        0
  3343  1964-33-38     -2   50   82  -0.070  -0.290        0
  3344  1976-42-357     2   50   81  -0.260   0.090        0
  3345  1976-48-355     2   50   81  -0.260   0.090        0
  3346  1976-55-348     2   50   81  -0.260   0.090        0
  3347  1976-60-305     2   50   81  -0.260   0.090        0
  3348  1976-66-1       2   50   81  -0.260   0.090        0
  3349  1976-71-55      2   50   81  -0.260   0.090        0
  3350  1976-71-365     2   50   81  -0.260   0.090        0
  3351  1970-42-356     2   50   81  -0.180   0.190        0
  3352  1970-48-336     2   50   81  -0.180   0.190        0
  3353  1970-56-19      2   50   81  -0.180   0.190        0
  3354  2051-43-1       2   49   83  -0.220   0.470        0
  3355  2051-65-356     2   49   83  -0.220   0.470        0
  3356  2051-71-54      2   49   83  -0.220   0.470        0
  3357  2051-71-365     2   49   83  -0.220   0.470        0
  3358  1973-11-214     2   50   83  -0.220   0.300        0
  3359  1969-11-190     2   50   83  -0.190   0.340        0
  3360  1946-66-5       1   50   84   0.000   0.350        0
  3361  1946-71-22      1   50   84   0.000   0.350        0
  3362  1946-71-365     1   50   84   0.000   0.350        0
  3363  1967-27-87     -2   50   84   0.040   0.410        0
  3364  1967-42-356     2   50   84   0.040   0.410        0
  3365  1967-48-350     2   50   84   0.040   0.410        0
  3366  1967-55-347     2   50   84   0.040   0.410        0
  3367  1967-66-5      -2   50   84   0.040   0.410        0
  3368  1967-71-22     -2   50   84   0.040   0.410        0
  3369  1967-71-365    -2   50   84   0.040   0.410        0
  3370  1939-42-356    -2   50   84   0.040   0.410        0
  3371  1939-48-350    -2   50   84   0.040   0.410        0
  3372  1939-55-347    -2   50   84   0.040   0.410        0
  3373  1939-60-356    -2   50   84   0.040   0.410        0
  3374  1939-71-22      2   50   84   0.040   0.410        0
  3375  1939-71-365     2   50   84   0.040   0.410        0
  3376  1975-16-361     1   50   85  -0.270   0.190        0
  3377  1975-27-12      1   50   85  -0.270   0.190        0
  3378  1945-56-25      2   50   85   0.040   0.190        0
  3379  1945-61-54      2   50   85   0.040   0.190        0
  3380  1945-66-27      2   50   85   0.040   0.190        0
  3381  1945-71-41      2   50   85   0.040   0.190        0
  3382  1711-42-352     3   52   24   0.470   0.340        0
  3383  1711-48-350     3   52   24   0.470   0.340        0
  3384  1711-55-354     3   52   24   0.470   0.340        0
  3385  1711-61-21      3   52   24   0.470   0.340        0
  3386  1711-66-39      3   52   24   0.470   0.340        0
  3387  1711-71-7       3   52   24   0.470   0.340        0
  3388  1711-71-365     3   52   24   0.470   0.340        0
  3389  1555-27-24     -2   53   25  -0.180  -0.040        0
  3390  1555-31-348    -2   53   25  -0.180  -0.040        0
  3391  1555-37-341    -2   53   25  -0.180  -0.040        0
  3392  1555-48-348    -2   53   25  -0.180  -0.040        0
  3393  1555-56-27     -2   53   25  -0.180  -0.040        0
  3394  1555-60-319    -2   53   25  -0.180  -0.040        0
  3395  1555-65-301    -2   53   25  -0.180  -0.040        0
  3396  1555-71-11     -2   53   25  -0.180  -0.040        0
  3397  1555-71-365    -2   53   25  -0.240  -0.030        0
  3398  1428-11-1       3   58   24   0.140  -0.230        0
  3399  1428-17-11      3   58   24   0.140  -0.230        0
  3400  1428-22-12      3   58   24   0.140  -0.230        0
  3401  1428-32-85      3   58   24   0.140  -0.230        0
  3402  1383-1-106      3   60   25  -0.370   0.300        0
  3403  1383-7-337      3   60   25  -0.370   0.300        0
  3404  1383-12-361     3   60   25  -0.370   0.300        0
  3405  1819-38-13     -2   52   31  -0.470   0.240        0
  3406  1819-42-352    -2   52   31  -0.470   0.240        0
  3407  1819-55-354    -2   52   31  -0.470   0.240        0
  3408  1820-71-12      2   52   30  -0.470   0.460        0
  3409  1820-71-365     2   52   30  -0.470   0.460        0
  3410  1748-17-6      -2   52   31  -0.010   0.400        0
  3411  1748-21-335    -2   52   31  -0.010   0.400        0
  3412  1748-48-348    -2   52   31  -0.010   0.400        0
  3413  1748-60-305    -2   52   31  -0.010   0.400        0
  3414  1748-66-1      -2   52   31  -0.010   0.400        0
  3415  1748-71-8      -2   52   31  -0.010   0.400        0
  3416  1748-71-365    -2   52   31  -0.010   0.400        0
  3417  1903-71-365     2   51   29  -0.430   0.390        0
  3418  1862-71-365     2   51   29   0.110  -0.490        0
  3419  1861-65-364     2   51   29   0.110   0.030        0
  3420  1861-71-365     2   51   29   0.110   0.030        0
  3421  1833-71-365     3   51   29   0.410  -0.070        0
  3422  1770-71-365     3   52   29  -0.200   0.320        0
  3423  1758-71-365     2   52   29  -0.170  -0.490        0
  3424  1709-22-38     -2   52   29   0.450  -0.270        0
  3425  1709-42-352    -2   52   29   0.450  -0.270        0
  3426  1709-55-354    -2   52   29   0.450  -0.270        0
  3427  1709-65-344    -2   52   29   0.450  -0.270        0
  3428  1709-71-365    -2   52   29   0.450  -0.270        0
  3429  1700-71-365     3   52   29   0.410  -0.070        0
  3430  1828-71-365     3   51   30   0.450  -0.190        0
  3431  1698-71-365     3   52   30   0.450   0.360        0
  3432  1883-65-336     3   51   28  -0.120  -0.140        0
  3433  1883-71-365     3   51   28  -0.120  -0.140        0
  3434  1838-71-365     3   51   27   0.370  -0.220        0
  3435  1805-71-365     2   52   26  -0.400   0.430        0
  3436  1702-16-354    -2   52   27   0.370  -0.120        0
  3437  1702-42-352    -2   52   27   0.370  -0.120        0
  3438  1702-48-349    -2   52   27   0.370  -0.120        0
  3439  1702-55-354    -2   52   27   0.370  -0.120        0
  3440  1702-61-31     -2   52   27   0.370  -0.120        0
  3441  1702-65-344    -2   52   27   0.370  -0.120        0
  3442  1702-71-365     2   52   27   0.370  -0.120        0
  3443  1704-71-365     3   52   27   0.360  -0.380        0
  3444  1829-71-365     3   51   28   0.450  -0.240        0
  3445  1710-17-6      -2   52   27   0.410   0.470        0
  3446  1710-42-352    -2   52   27   0.410   0.470        0
  3447  1710-48-349    -2   52   27   0.410   0.470        0
  3448  1710-55-354    -2   52   27   0.410   0.470        0
  3449  1710-61-31     -2   52   27   0.410   0.470        0
  3450  1710-65-344    -2   52   27   0.410   0.470        0
  3451  1710-71-365     3   52   27   0.410   0.470        0
  3452  1703-71-365     2   52   28   0.370  -0.340        0
  3453  1663-12-305    -2   53   27  -0.210   0.370        0
  3454  1663-42-352    -2   53   27  -0.210   0.370        0
  3455  1663-48-349    -2   53   27  -0.210   0.370        0
  3456  1663-55-354    -2   53   27  -0.210   0.370        0
  3457  1663-61-31     -2   53   27  -0.210   0.370        0
  3458  1663-65-338    -2   53   27  -0.210   0.370        0
  3459  1663-71-365     3   53   27  -0.210   0.370        0
  3460  1667-71-365     3   53   27  -0.140   0.170        0
  3461  1686-71-365     3   53   30  -0.470  -0.160        0
  3462  1653-71-365     2   53   29   0.060   0.420        0
  3463  1634-71-365     3   53   29   0.400   0.380        0
  3464  1637-71-365     3   53   30   0.370   0.330        0
  3465  1635-71-365     3   53   29   0.400  -0.500        0
  3466  1584-17-6      -2   54   29   0.400  -0.500        0
  3467  1584-22-38     -2   54   29   0.400  -0.500        0
  3468  1584-27-27     -2   54   29   0.400  -0.500        0
  3469  1584-32-85     -2   54   29   0.400  -0.500        0
  3470  1584-37-34     -2   54   29   0.400  -0.500        0
  3471  1584-42-352    -2   54   29   0.400  -0.500        0
  3472  1584-48-348    -2   54   29   0.400  -0.500        0
  3473  1584-55-354    -2   54   29   0.400  -0.500        0
  3474  1584-60-323    -2   54   29   0.400  -0.500        0
  3475  1584-65-344    -2   54   29   0.400  -0.500        0
  3476  1584-71-365    -2   54   29   0.400  -0.500        0
  3477  1585-71-365     2   54   28   0.400   0.470        0
  3478  1592-71-365     2   54   29   0.320   0.380        0
  3479  1591-71-365     2   54   30   0.320  -0.490        0
  3480  1590-71-365     3   54   30   0.320   0.260        0
  3481  1650-71-365     2   53   31   0.100  -0.120        0
  3482  1684-48-275     3   52   34   0.500  -0.030        0
  3483  1684-66-20      3   52   34   0.500  -0.030        0
  3484  1685-48-275     3   52   34   0.500  -0.030        0
  3485  1685-66-20      3   52   34   0.500  -0.030        0
  3486  1496-21-355     2   56   37   0.400  -0.500        0
  3487  1496-27-27      2   56   37   0.400  -0.500        0
  3488  1496-32-85      2   56   37   0.400  -0.500        0
  3489  1496-36-91      2   56   37   0.400  -0.500        0
  3490  1496-56-19      2   56   37   0.400  -0.500        0
  3491  1491-56-19      2   56   37   0.440  -0.500        0
  3492  1501-16-309     3   56   38   0.290   0.320        0
  3493  1497-48-300     3   56   36   0.210   0.010        0
  3494  1497-55-318     3   56   36   0.210   0.010        0
  3495  1497-60-313     3   56   36   0.210   0.010        0
  3496  1497-65-364     3   56   36   0.210   0.010        0
  3497  1497-71-350     3   56   36   0.210   0.010        0
  3498  1498-48-300     2   56   36   0.210   0.010        0
  3499  1498-55-318     2   56   36   0.210   0.010        0
  3500  1498-60-313     2   56   36   0.210   0.010        0
  3501  1498-65-364     2   56   36   0.210   0.010        0
  3502  1498-71-350     2   56   36   0.210   0.010        0
  3503  1442-36-1      -2   58   32  -0.420   0.500        0
  3504  1442-42-349    -2   58   32  -0.420   0.500        0
  3505  1442-48-349    -2   58   32  -0.420   0.500        0
  3506  1442-55-353    -2   58   32  -0.420   0.500        0
  3507  1442-61-21     -2   58   32  -0.420   0.500        0
  3508  1473-10-213     3   57   38  -0.170   0.320        0
  3509  1407-22-38     -2   59   34  -0.080   0.380        0
  3510  1407-42-349    -2   59   34  -0.080   0.380        0
  3511  1407-48-349    -2   59   34  -0.080   0.380        0
  3512  1407-55-353    -2   59   34  -0.080   0.380        0
  3513  1407-61-21     -2   59   34  -0.080   0.380        0
  3514  1407-66-34     -2   59   34  -0.080   0.380        0
  3515  1407-71-365    -2   59   34  -0.080   0.380        0
  3516  1412-71-365     1   59   34  -0.270   0.380        0
  3517  1393-38-335     3   59   33   0.420  -0.470        0
  3518  1393-42-349     3   59   33   0.420  -0.470        0
  3519  1393-48-349     3   59   33   0.420  -0.470        0
  3520  1393-55-353     3   59   33   0.420  -0.470        0
  3521  1393-71-365     3   59   33   0.420  -0.470        0
  3522  1376-36-78     -2   60   33   0.190   0.370        0
  3523  1376-48-349    -2   60   33   0.190   0.370        0
  3524  1376-61-21     -2   60   33   0.190   0.370        0
  3525  1376-66-34     -2   60   33   0.190   0.370        0
  3526  1376-71-56     -2   60   33   0.190   0.370        0
  3527  1376-71-365     3   60   33   0.190   0.370        0
  3528  1361-71-362     2   61   34   0.220   0.470        0
  3529  1362-71-362     2   61   34   0.220   0.470        0
  3530  1421-71-362     2   60   32  -0.160   0.130        0
  3531  1403-66-34      3   59   31   0.150  -0.260        0
  3532  1403-71-56      3   59   31   0.150  -0.260        0
  3533  1403-71-365     3   59   31   0.150  -0.260        0
  3534  1388-71-362     2   60   31  -0.160  -0.040        0
  3535  1364-17-12      2   60   31   0.410   0.480        0
  3536  1364-38-335     2   60   31   0.410   0.480        0
  3537  1364-42-349     2   60   31   0.410   0.480        0
  3538  1364-55-353     2   60   31   0.410   0.480        0
  3539  1364-66-34      2   60   31   0.410   0.480        0
  3540  1364-71-365     2   60   31   0.410   0.480        0
  3541  1365-17-12     -2   60   30   0.370   0.310        0
  3542  1365-22-6      -2   60   30   0.370   0.310        0
  3543  1365-27-27     -2   60   30   0.370   0.310        0
  3544  1365-32-85     -2   60   30   0.370   0.310        0
  3545  1365-37-17     -2   60   30   0.370   0.310        0
  3546  1365-42-349    -2   60   30   0.370   0.310        0
  3547  1365-48-349    -2   60   30   0.370   0.310        0
  3548  1365-55-353    -2   60   30   0.370   0.310        0
  3549  1365-60-364    -2   60   30   0.370   0.310        0
  3550  1365-66-1      -2   60   30   0.370   0.310        0
  3551  1365-71-365    -2   60   30   0.370   0.310        0
  3552  1335-71-362     2   61   31   0.210  -0.040        0
  3553  1313-36-114    -2   62   31  -0.480   0.410        0
  3554  1313-42-349    -2   62   31  -0.480   0.410        0
  3555  1313-48-349    -2   62   31  -0.480   0.410        0
  3556  1313-55-353    -2   62   31  -0.480   0.410        0
  3557  1313-61-21     -2   62   31  -0.480   0.410        0
  3558  1313-66-13     -2   62   31  -0.480   0.410        0
  3559  1266-17-12     -2   62   31   0.360  -0.300        0
  3560  1266-38-335    -2   62   31   0.360  -0.300        0
  3561  1266-42-349    -2   62   31   0.360  -0.300        0
  3562  1266-48-349    -2   62   31   0.360  -0.300        0
  3563  1266-56-3      -2   62   31   0.360  -0.300        0
  3564  1266-61-21     -2   62   31   0.360  -0.300        0
  3565  1266-66-12     -2   62   31   0.360  -0.300        0
  3566  1266-71-56     -2   62   31   0.360  -0.300        0
  3567  1266-71-365     2   62   31   0.360  -0.300        0
  3568  1258-71-362     2   63   32  -0.410   0.130        0
  3569  1265-17-12     -2   62   32   0.290  -0.290        0
  3570  1265-38-335    -2   62   32   0.290  -0.290        0
  3571  1265-42-349    -2   62   32   0.290  -0.290        0
  3572  1265-48-349    -2   62   32   0.290  -0.290        0
  3573  1265-55-353    -2   62   32   0.290  -0.290        0
  3574  1265-66-34     -2   62   32   0.290  -0.290        0
  3575  1265-71-56     -2   62   32   0.290  -0.290        0
  3576  1265-71-365    -2   62   32   0.290  -0.290        0
  3577  1336-17-12     -2   61   34  -0.090   0.380        0
  3578  1336-38-335    -2   61   34  -0.090   0.380        0
  3579  1336-42-349    -2   61   34  -0.090   0.380        0
  3580  1336-48-349    -2   61   34  -0.090   0.380        0
  3581  1336-55-353    -2   61   34  -0.090   0.380        0
  3582  1336-71-40     -2   61   34  -0.090   0.380        0
  3583  1336-71-365    -2   61   34  -0.090   0.380        0
  3584  1337-42-349    -2   61   32  -0.090   0.490        0
  3585  1337-55-353    -2   61   32  -0.090   0.490        0
  3586  1337-66-27     -2   61   32  -0.090   0.490        0
  3587  1337-71-365    -2   61   32  -0.090   0.490        0
  3588  1340-36-38     -2   61   32  -0.130   0.490        0
  3589  1340-42-349    -2   61   32  -0.130   0.490        0
  3590  1340-48-349    -2   61   32  -0.130   0.490        0
  3591  1340-55-353    -2   61   32  -0.130   0.490        0
  3592  1340-66-10     -2   61   32  -0.130   0.490        0
  3593  1340-71-56     -2   61   32  -0.130   0.490        0
  3594  1340-71-365    -2   61   32  -0.130   0.490        0
  3595  1264-38-335    -2   62   33   0.250  -0.420        0
  3596  1264-42-349    -2   62   33   0.250  -0.420        0
  3597  1264-71-70     -2   62   33   0.250  -0.420        0
  3598  1264-71-365    -2   62   33   0.250  -0.420        0
  3599  1257-66-33      3   62   33   0.330   0.330        0
  3600  1257-71-56      3   62   33   0.330   0.330        0
  3601  1257-71-365     3   62   33   0.330   0.330        0
  3602  1371-56-31      3   60   39   0.190  -0.230        0
  3603  1371-66-56      3   60   39   0.190  -0.230        0
  3604  1371-71-50      3   60   39   0.190  -0.230        0
  3605  1371-71-365     3   60   39   0.190  -0.230        0
  3606  1370-34-198     2   60   39   0.230   0.130        0
  3607  1370-56-31      2   60   39   0.230   0.130        0
  3608  1370-66-56      2   60   39   0.230   0.130        0
  3609  1370-71-50      2   60   39   0.230   0.130        0
  3610  1370-71-365     2   60   39   0.230   0.130        0
  3611  1849-12-32     -2   51   62   0.290   0.170        0
  3612  1849-17-34     -2   51   62   0.290   0.170        0
  3613  1849-22-1      -2   51   62   0.290   0.170        0
  3614  1847-48-362     2   51   62   0.370   0.140        0
  3615  1847-56-34      2   51   62   0.370   0.140        0
  3616  1847-61-3       2   51   62   0.370   0.140        0
  3617  1847-66-1       2   51   62   0.370   0.140        0
  3618  1847-71-56      2   51   62   0.370   0.140        0
  3619  1847-71-365     2   51   62   0.370   0.140        0
  3620  1742-1-365      1   52   59   0.060  -0.050        0
  3621  1741-1-365      3   52   59   0.060   0.180        0
  3622  1766-1-365      1   52   60  -0.170  -0.080        0
  3623  1848-56-34      2   51   58   0.330   0.270        0
  3624  1848-65-336     1   51   58   0.330   0.270        0
  3625  1848-71-365     1   51   58   0.330   0.270        0
  3626  1901-2-36       2   51   57  -0.390   0.290        0
  3627  1912-1-365      1   50   57   0.450  -0.160        0
  3628  1929-1-365      1   50   57   0.300  -0.100        0
  3629  1902-1-365      1   51   57  -0.390  -0.260        0
  3630  1872-71-68      2   51   57   0.100   0.360        0
  3631  1872-71-365     2   51   57   0.100   0.360        0
  3632  1871-56-34      2   51   57   0.100   0.360        0
  3633  1832-17-37      3   51   57   0.450   0.190        0
  3634  1832-22-1       3   51   57   0.450   0.190        0
  3635  1832-32-49      3   51   57   0.450   0.190        0
  3636  1832-42-362     3   51   57   0.450   0.190        0
  3637  1832-48-362     3   51   57   0.450   0.190        0
  3638  1832-56-34      3   51   57   0.450   0.190        0
  3639  1832-61-3       3   51   57   0.450   0.190        0
  3640  1832-71-21      3   51   57   0.450   0.190        0
  3641  1832-71-365     3   51   57   0.450   0.190        0
  3642  1767-27-40     -2   52   58  -0.320   0.430        0
  3643  1767-42-363    -2   52   58  -0.320   0.430        0
  3644  1767-56-34     -2   52   58  -0.320   0.430        0
  3645  1818-65-336     2   52   58  -0.440  -0.350        0
  3646  1804-71-76      2   52   58  -0.360  -0.350        0
  3647  1804-71-365     2   52   58  -0.360  -0.350        0
  3648  1793-42-362    -2   52   58  -0.170  -0.250        0
  3649  1793-48-334    -2   52   58  -0.170  -0.250        0
  3650  1793-56-34     -2   52   58  -0.170  -0.250        0
  3651  1793-65-336    -2   52   58  -0.170  -0.250        0
  3652  1793-71-21     -2   52   58  -0.170  -0.250        0
  3653  1793-71-365    -2   52   58  -0.170  -0.250        0
  3654  1891-1-365      2   51   56  -0.280  -0.270        0
  3655  1891-11-38      2   51   56  -0.280  -0.270        0
  3656  1891-17-37      2   51   56  -0.280  -0.270        0
  3657  1690-32-32      2   53   59  -0.480   0.370        0
  3658  1690-34-32      2   53   59  -0.480   0.370        0
  3659  1690-42-362     2   53   59  -0.480   0.370        0
  3660  1690-48-362     2   53   59  -0.480   0.370        0
  3661  1690-56-34      2   53   59  -0.480   0.370        0
  3662  1690-61-3       2   53   59  -0.480   0.370        0
  3663  1690-71-21      2   53   59  -0.480   0.370        0
  3664  1690-71-365     2   53   59  -0.480   0.370        0
  3665  1697-56-34      1   52   59   0.480  -0.380        0
  3666  1697-65-336     1   52   59   0.480  -0.380        0
  3667  1697-71-21      1   52   59   0.480  -0.380        0
  3668  1697-71-365     1   52   59   0.480  -0.380        0
  3669  1638-22-30      2   53   60   0.360  -0.370        0
  3670  1638-27-48      2   53   60   0.360  -0.370        0
  3671  1638-32-49      2   53   60   0.360  -0.370        0
  3672  1638-37-49      2   53   60   0.360  -0.370        0
  3673  1638-42-363     2   53   60   0.360  -0.370        0
  3674  1642-1-365      3   53   61   0.250  -0.260        0
  3675  1642-8-48       3   53   61   0.250  -0.260        0
  3676  1626-1-365      3   54   61  -0.300   0.420        0
  3677  1625-26-349    -2   54   62  -0.410  -0.090        0
  3678  1625-32-49     -2   54   62  -0.410  -0.090        0
  3679  1625-42-362    -2   54   62  -0.410  -0.090        0
  3680  1625-48-362    -2   54   62  -0.410  -0.090        0
  3681  1625-56-34     -2   54   62  -0.410  -0.090        0
  3682  1625-61-3      -2   54   62  -0.410  -0.090        0
  3683  1508-12-54     -2   56   61  -0.380  -0.260        0
  3684  1508-17-33     -2   56   61  -0.380  -0.260        0
  3685  1508-22-26     -2   56   61  -0.380  -0.260        0
  3686  1508-27-15     -2   56   61  -0.380  -0.260        0
  3687  1508-32-49     -2   56   61  -0.380  -0.260        0
  3688  1508-43-5      -2   56   61  -0.380  -0.260        0
  3689  1508-48-364    -2   56   61  -0.380  -0.260        0
  3690  1508-56-34     -2   56   61  -0.380  -0.260        0
  3691  1508-61-3      -2   56   61  -0.380  -0.260        0
  3692  1508-71-49     -2   56   61  -0.380  -0.260        0
  3693  1508-71-365    -2   56   61  -0.380  -0.260        0
  3694  1479-43-5      -2   57   60  -0.230  -0.040        0
  3695  1479-48-364    -2   57   60  -0.230  -0.040        0
  3696  1479-56-34     -2   57   60  -0.230  -0.040        0
  3697  1479-60-363    -2   57   60  -0.230  -0.040        0
  3698  1479-71-70     -2   57   60  -0.230  -0.040        0
  3699  1479-71-365    -2   57   60  -0.230  -0.040        0
  3700  1462-42-364     1   57   60   0.190  -0.170        0
  3701  1462-48-334     1   57   60   0.190  -0.170        0
  3702  1462-56-16      1   57   60   0.190  -0.170        0
  3703  1468-1-365      1   57   60   0.030   0.220        0
  3704  1471-11-278    -2   57   59  -0.270   0.440        0
  3705  1471-17-33     -2   57   59  -0.270   0.440        0
  3706  1471-22-26     -2   57   59  -0.270   0.440        0
  3707  1471-26-349    -2   57   59  -0.270   0.440        0
  3708  1471-43-5      -2   57   59  -0.270   0.440        0
  3709  1471-48-364     2   57   59  -0.270   0.440        0
  3710  1471-65-336    -2   57   59  -0.270   0.440        0
  3711  1471-71-70     -2   57   59  -0.270   0.440        0
  3712  1471-71-365    -2   57   59  -0.270   0.440        0
  3713  1461-12-54     -2   57   62   0.260   0.500        0
  3714  1461-17-44     -2   57   62   0.260   0.500        0
  3715  1461-22-30     -2   57   62   0.260   0.500        0
  3716  1461-27-59     -2   57   62   0.260   0.500        0
  3717  1461-42-363    -2   57   62   0.260   0.500        0
  3718  1461-48-336    -2   57   62   0.260   0.500        0
  3719  1461-56-34     -2   57   62   0.260   0.500        0
  3720  1461-60-363    -2   57   62   0.260   0.500        0
  3721  1461-66-59     -2   57   62   0.260   0.500        0
  3722  1461-71-70     -2   57   62   0.260   0.500        0
  3723  1461-71-365    -2   57   62   0.260   0.500        0
  3724  1387-42-362    -2   60   61  -0.480  -0.030        0
  3725  1387-49-2      -2   60   61  -0.480  -0.030        0
  3726  1387-56-33     -2   60   61  -0.480  -0.030        0
  3727  1387-60-363    -2   60   61  -0.480  -0.030        0
  3728  1387-66-59     -2   60   61  -0.480  -0.030        0
  3729  1387-71-70     -2   60   61  -0.480  -0.030        0
  3730  1387-71-365    -2   60   61  -0.480  -0.030        0
  3731  1391-17-41     -3   59   62   0.250   0.400        0
  3732  1391-22-31     -3   59   62   0.250   0.400        0
  3733  1391-42-362    -2   59   62   0.250   0.400        0
  3734  1391-48-338    -2   59   62   0.250   0.400        0
  3735  1391-56-16     -2   59   62   0.250   0.400        0
  3736  1391-61-59     -2   59   62   0.250   0.400        0
  3737  1391-66-27     -2   59   62   0.250   0.400        0
  3738  1391-71-56     -2   59   62   0.250   0.400        0
  3739  1386-17-41     -3   59   62   0.290   0.370        0
  3740  1386-22-31     -3   59   62   0.290   0.370        0
  3741  1386-42-362    -2   59   62   0.290   0.370        0
  3742  1386-48-337    -2   59   62   0.290   0.370        0
  3743  1386-56-16     -2   59   62   0.290   0.370        0
  3744  1398-48-335    -2   59   62   0.290   0.370        0
  3745  1401-2-1        2   59   60   0.100  -0.430        0
  3746  1401-12-53      2   59   60   0.100  -0.430        0
  3747  1401-17-60      2   59   60   0.100  -0.430        0
  3748  1401-22-26      2   59   60   0.100  -0.430        0
  3749  1427-17-39      1   58   59   0.410  -0.180        0
  3750  1427-22-31      1   58   59   0.410  -0.180        0
  3751  1427-42-362     1   58   59   0.410  -0.180        0
  3752  1427-48-364     1   58   59   0.410  -0.180        0
  3753  1427-56-33      1   58   59   0.410  -0.180        0
  3754  1378-42-364     1   60   59  -0.020   0.110        0
  3755  1400-1-32       2   59   60   0.140  -0.400        0
  3756  1400-12-53      2   59   60   0.140  -0.400        0
  3757  1400-17-60      2   59   60   0.140  -0.400        0
  3758  1400-22-26      2   59   60   0.140  -0.400        0
  3759  1400-27-48      2   59   60   0.140  -0.400        0
  3760  1400-36-3       2   59   60   0.140  -0.400        0
  3761  1400-43-5       2   59   60   0.140  -0.400        0
  3762  1400-48-364     2   59   60   0.140  -0.400        0
  3763  1400-56-33      2   59   60   0.140  -0.400        0
  3764  1400-60-363     2   59   60   0.140  -0.400        0
  3765  1400-71-365     2   59   60   0.140  -0.400        0
  3766  1405-7-308      2   59   59   0.140  -0.380        0
  3767  1405-10-34      2   59   59   0.140  -0.380        0
  3768  1405-43-5       2   59   59   0.140  -0.380        0
  3769  1405-48-364     2   59   59   0.140  -0.380        0
  3770  1405-56-33      2   59   59   0.140  -0.380        0
  3771  1405-66-13      2   59   59   0.140  -0.380        0
  3772  1405-71-365     2   59   59   0.140  -0.380        0
  3773  1349-17-41     -2   61   58  -0.330   0.070        0
  3774  1349-22-30     -2   61   58  -0.330   0.070        0
  3775  1329-1-274      2   61   58   0.170   0.170        0
  3776  1329-17-41      2   61   58   0.170   0.170        0
  3777  1329-22-31      2   61   58   0.170   0.170        0
  3778  1329-42-364     2   61   58   0.170   0.170        0
  3779  1329-56-16      2   61   58   0.170   0.170        0
  3780  1329-66-26      2   61   58   0.170   0.170        0
  3781  1282-1-277      1   62   58   0.080  -0.030        0
  3782  1283-1-309      2   62   58   0.200   0.330        0
  3783  1283-6-340      2   62   58   0.200   0.330        0
  3784  1283-11-350     2   62   58   0.200   0.330        0
  3785  1283-16-301     2   62   58   0.200   0.330        0
  3786  1283-22-30      2   62   58   0.200   0.330        0
  3787  1283-27-10      2   62   58   0.200   0.330        0
  3788  1283-35-345     2   62   58   0.200   0.330        0
  3789  1274-6-288      2   62   59   0.200  -0.440        0
  3790  1274-12-54      2   62   59   0.200  -0.440        0
  3791  1274-17-41      2   62   59   0.200  -0.440        0
  3792  1274-22-30      2   62   59   0.200  -0.440        0
  3793  1356-43-1      -2   61   60  -0.450   0.220        0
  3794  1347-66-49      1   61   60  -0.290   0.410        0
  3795  1345-55-350    -2   61   60  -0.290   0.410        0
  3796  1345-61-33     -2   61   60  -0.290   0.410        0
  3797  1345-66-49     -2   61   60  -0.290   0.410        0
  3798  1345-71-68     -2   61   60  -0.290   0.410        0
  3799  1345-71-365     3   61   60  -0.290   0.410        0
  3800  1321-12-57      2   61   60   0.170   0.350        0
  3801  1321-17-41      2   61   60   0.170   0.350        0
  3802  1321-22-27      2   61   60   0.170   0.350        0
  3803  1321-27-51      2   61   60   0.170   0.350        0
  3804  1360-56-34     -2   60   59   0.440   0.180        0
  3805  1360-60-362    -2   60   59   0.440   0.180        0
  3806  1360-65-348    -2   60   59   0.440   0.180        0
  3807  1360-71-48     -2   60   59   0.440   0.180        0
  3808  1360-71-365    -2   60   59   0.440   0.180        0
  3809  1328-1-277      1   61   59   0.170   0.280        0
  3810  1328-6-295      1   61   59   0.170   0.280        0
  3811  1306-11-41     -2   61   60   0.400  -0.400        0
  3812  1306-17-41     -2   61   60   0.400  -0.400        0
  3813  1306-22-27     -2   61   60   0.400  -0.400        0
  3814  1306-43-5       2   61   60   0.400  -0.400        0
  3815  1306-48-364     2   61   60   0.400  -0.400        0
  3816  1306-56-33      2   61   60   0.400  -0.400        0
  3817  1306-60-363     2   61   60   0.400  -0.400        0
  3818  1306-66-6      -2   61   60   0.400  -0.400        0
  3819  1306-71-60     -2   61   60   0.400  -0.400        0
  3820  1306-71-365    -2   61   60   0.400  -0.400        0
  3821  1307-1-274      2   61   59   0.360   0.210        0
  3822  1307-11-41      2   61   59   0.360   0.210        0
  3823  1307-17-41      2   61   59   0.360   0.210        0
  3824  1307-22-27      2   61   59   0.360   0.210        0
  3825  1307-26-349     2   61   59   0.360   0.210        0
  3826  1307-48-364     2   61   59   0.360   0.210        0
  3827  1307-56-33      2   61   59   0.360   0.210        0
  3828  1307-71-60      2   61   59   0.360   0.210        0
  3829  1307-71-365     2   61   59   0.360   0.210        0
  3830  1304-1-274      3   62   59  -0.410   0.180        0
  3831  1304-11-41      3   62   59  -0.410   0.180        0
  3832  1304-17-32      3   62   59  -0.410   0.180        0
  3833  1304-22-27      3   62   59  -0.410   0.180        0
  3834  1304-26-302     3   62   59  -0.410   0.180        0
  3835  1304-48-364     3   62   59  -0.410   0.180        0
  3836  1304-56-33      3   62   59  -0.410   0.180        0
  3837  1304-60-356     3   62   59  -0.410   0.180        0
  3838  1304-71-60      3   62   59  -0.410   0.180        0
  3839  1281-12-54      2   62   59   0.080  -0.280        0
  3840  1281-17-41      2   62   59   0.080  -0.280        0
  3841  1281-22-30      2   62   59   0.080  -0.280        0
  3842  1281-32-50      2   62   59   0.080  -0.280        0
  3843  1281-37-49      2   62   59   0.080  -0.280        0
  3844  1292-1-274      2   62   59  -0.070   0.150        0
  3845  1292-17-46      2   62   59  -0.070   0.150        0
  3846  1292-22-27      2   62   59  -0.070   0.150        0
  3847  1292-26-349     2   62   59  -0.070   0.150        0
  3848  1292-43-5       2   62   59  -0.070   0.150        0
  3849  1292-48-364     2   62   59  -0.070   0.150        0
  3850  1272-1-60       2   62   59   0.200   0.280        0
  3851  1272-7-176      2   62   59   0.200   0.280        0
  3852  1272-60-363     2   62   59   0.200   0.280        0
  3853  1272-65-348     2   62   59   0.200   0.280        0
  3854  1272-71-365     2   62   59   0.200   0.280        0
  3855  1298-42-362    -2   62   60  -0.410   0.450        0
  3856  1298-56-10     -2   62   60  -0.410   0.450        0
  3857  1298-60-363    -2   62   60  -0.410   0.450        0
  3858  1298-66-13     -2   62   60  -0.410   0.450        0
  3859  1298-71-365    -2   62   60  -0.410   0.450        0
  3860  1299-56-10      2   62   60  -0.340  -0.010        0
  3861  1299-66-13      1   62   60  -0.340  -0.010        0
  3862  1299-71-365     1   62   60  -0.340  -0.010        0
  3863  1294-43-5       2   62   60  -0.220  -0.200        0
  3864  1294-48-364     2   62   60  -0.220  -0.200        0
  3865  1294-56-10      2   62   60  -0.220  -0.200        0
  3866  1294-60-363     2   62   60  -0.220  -0.200        0
  3867  1294-66-13     -2   62   60  -0.220  -0.200        0
  3868  1294-71-365    -2   62   60  -0.220  -0.200        0
  3869  1296-71-60     -2   62   60  -0.260  -0.170        0
  3870  1288-56-10      2   62   60  -0.150  -0.170        0
  3871  1288-66-13      1   62   60  -0.150  -0.170        0
  3872  1288-71-41      1   62   60  -0.150  -0.170        0
  3873  1288-71-365     1   62   60  -0.150  -0.170        0
  3874  1285-60-361    -2   62   60  -0.070   0.450        0
  3875  1285-71-365    -2   62   60  -0.070   0.450        0
  3876  1291-60-361    -2   62   60  -0.180   0.150        0
  3877  1291-71-365    -2   62   60  -0.180   0.150        0
  3878  1287-60-361    -2   62   60  -0.150   0.220        0
  3879  1287-71-365    -2   62   60  -0.150   0.220        0
  3880  1342-71-62     -2   61   62  -0.180   0.070        0
  3881  1342-71-365    -2   61   62  -0.180   0.070        0
  3882  1346-11-40      2   61   61  -0.290   0.490        0
  3883  1346-17-44      2   61   61  -0.290   0.490        0
  3884  1346-22-27      2   61   61  -0.290   0.490        0
  3885  1346-27-59      2   61   61  -0.290   0.490        0
  3886  1346-32-50      2   61   61  -0.290   0.490        0
  3887  1346-42-362     2   61   61  -0.290   0.490        0
  3888  1346-48-357     2   61   61  -0.290   0.490        0
  3889  1346-56-32      2   61   61  -0.290   0.490        0
  3890  1346-60-363     2   61   61  -0.290   0.490        0
  3891  1346-71-62      2   61   61  -0.290   0.490        0
  3892  1346-71-365     2   61   61  -0.290   0.490        0
  3893  1351-71-62      1   61   62  -0.370  -0.410        0
  3894  1351-71-365     1   61   62  -0.370  -0.410        0
  3895  1305-12-57      2   62   61  -0.490   0.260        0
  3896  1305-17-46      2   62   61  -0.490   0.260        0
  3897  1305-22-27      2   62   61  -0.490   0.260        0
  3898  1305-42-362     2   62   61  -0.490   0.260        0
  3899  1305-48-357     2   62   61  -0.490   0.260        0
  3900  1305-55-357     2   62   61  -0.490   0.260        0
  3901  1305-60-342     2   62   61  -0.490   0.260        0
  3902  1305-66-59      2   62   61  -0.490   0.260        0
  3903  1305-71-20      2   62   61  -0.490   0.260        0
  3904  1305-71-365     2   62   61  -0.490   0.260        0
  3905  1286-1-91       1   62   61  -0.110  -0.130        0
  3906  1284-60-361    -2   62   61  -0.030  -0.330        0
  3907  1284-65-356    -2   62   61  -0.030  -0.330        0
  3908  1284-71-365    -2   62   61  -0.030  -0.330        0
  3909  1271-42-362    -2   62   61   0.200  -0.230        0
  3910  1271-56-10     -2   62   61   0.200  -0.230        0
  3911  1271-60-363    -2   62   61   0.200  -0.230        0
  3912  1271-66-13     -3   62   61   0.200  -0.230        0
  3913  1271-71-62     -3   62   61   0.200  -0.230        0
  3914  1271-71-365    -3   62   61   0.200  -0.230        0
  3915  1293-56-10      2   62   61  -0.220  -0.260        0
  3916  1293-66-13      1   62   61  -0.220  -0.260        0
  3917  1293-71-47      1   62   61  -0.220  -0.260        0
  3918  1293-71-365     1   62   61  -0.220  -0.260        0
  3919  1898-10-252     1   51   74  -0.440  -0.250        0
  3920  1873-10-252     1   51   73   0.060   0.260        0
  3921  1763-10-252     1   52   74  -0.180  -0.030        0
  3922  1762-7-161     -2   52   74  -0.180   0.430        0
  3923  1762-22-60     -2   52   74  -0.180   0.430        0
  3924  1776-42-355    -2   52   74  -0.260   0.400        0
  3925  1776-56-27     -2   52   74  -0.260   0.400        0
  3926  1776-66-54     -2   52   74  -0.260   0.400        0
  3927  1776-71-64     -2   52   74  -0.260   0.400        0
  3928  1776-71-365    -2   52   74  -0.260   0.400        0
  3929  1775-42-355     2   52   74  -0.300   0.400        0
  3930  1775-56-27      2   52   74  -0.300   0.400        0
  3931  1775-66-54      2   52   74  -0.300   0.400        0
  3932  1775-71-64      2   52   74  -0.300   0.400        0
  3933  1775-71-365     2   52   74  -0.300   0.400        0
  3934  1905-10-252     1   51   72  -0.440   0.410        0
  3935  1875-10-252     1   51   72   0.020  -0.300        0
  3936  1877-22-79      1   51   72  -0.020  -0.010        0
  3937  1877-42-356     1   51   72  -0.020  -0.010        0
  3938  1877-48-355     1   51   72  -0.020  -0.010        0
  3939  1877-66-59      1   51   72  -0.020  -0.010        0
  3940  1877-71-64      1   51   72  -0.020  -0.010        0
  3941  1877-71-365     1   51   72  -0.020  -0.010        0
  3942  1878-42-356     2   51   72  -0.020   0.020        0
  3943  1878-48-356     2   51   72  -0.020   0.020        0
  3944  1878-56-10      2   51   72  -0.020   0.020        0
  3945  1878-61-26      2   51   72  -0.020   0.020        0
  3946  1878-66-59      2   51   72  -0.020   0.020        0
  3947  1878-71-64      2   51   72  -0.020   0.020        0
  3948  1878-71-365     2   51   72  -0.020   0.020        0
  3949  1926-42-363     1   50   71   0.370  -0.210        0
  3950  1886-22-79      1   51   71  -0.210   0.110        0
  3951  1886-26-349     1   51   71  -0.210   0.110        0
  3952  1886-42-362     1   51   71  -0.210   0.110        0
  3953  1886-48-357     1   51   71  -0.210   0.110        0
  3954  1886-56-24      1   51   71  -0.210   0.110        0
  3955  1886-66-1       1   51   71  -0.210   0.110        0
  3956  1886-71-62      1   51   71  -0.210   0.110        0
  3957  1886-71-365     1   51   71  -0.210   0.110        0
  3958  1852-10-255     1   51   71   0.250   0.440        0
  3959  1822-10-255     1   52   71  -0.480  -0.120        0
  3960  1786-66-19      1   52   71  -0.290   0.180        0
  3961  1786-71-33      1   52   71  -0.290   0.180        0
  3962  1786-71-365     1   52   71  -0.290   0.180        0
  3963  1851-10-252     1   51   72   0.250   0.410        0
  3964  1791-12-116    -2   52   72  -0.250  -0.010        0
  3965  1791-22-79     -2   52   72  -0.250  -0.010        0
  3966  1791-26-294    -2   52   72  -0.250  -0.010        0
  3967  1791-42-356    -2   52   72  -0.250  -0.010        0
  3968  1791-48-356    -2   52   72  -0.250  -0.010        0
  3969  1791-66-56     -2   52   72  -0.250  -0.010        0
  3970  1791-71-33     -2   52   72  -0.250  -0.010        0
  3971  1791-71-365    -2   52   72  -0.250  -0.010        0
  3972  1785-42-356    -2   52   72  -0.290  -0.010        0
  3973  1785-48-356    -2   52   72  -0.290  -0.010        0
  3974  1785-56-10     -2   52   72  -0.290  -0.010        0
  3975  1785-61-26     -2   52   72  -0.290  -0.010        0
  3976  1785-66-56     -2   52   72  -0.290  -0.010        0
  3977  1785-71-33     -2   52   72  -0.290  -0.010        0
  3978  1785-71-365    -2   52   72  -0.290  -0.010        0
  3979  1928-10-256     1   50   70   0.290   0.170        0
  3980  1879-12-111    -2   51   70  -0.020   0.200        0
  3981  1879-22-79     -2   51   70  -0.020   0.200        0
  3982  1879-42-362    -2   51   70  -0.020   0.200        0
  3983  1879-48-357    -2   51   70  -0.020   0.200        0
  3984  1879-55-353    -2   51   70  -0.020   0.200        0
  3985  1879-60-313    -2   51   70  -0.020   0.200        0
  3986  1879-71-49     -2   51   70  -0.020   0.200        0
  3987  1879-71-365    -2   51   70  -0.020   0.200        0
  3988  1824-10-256     2   52   69  -0.480   0.160        0
  3989  1811-7-156     -2   52   69  -0.400  -0.390        0
  3990  1811-22-79     -2   52   69  -0.400  -0.390        0
  3991  1811-32-32     -2   52   69  -0.400  -0.390        0
  3992  1811-48-357    -2   52   69  -0.400  -0.390        0
  3993  1811-55-354    -2   52   69  -0.400  -0.390        0
  3994  1811-60-349    -2   52   69  -0.400  -0.390        0
  3995  1811-65-355    -2   52   69  -0.400  -0.390        0
  3996  1811-71-68     -2   52   69  -0.400  -0.390        0
  3997  1811-71-365    -2   52   69  -0.400  -0.390        0
  3998  1777-10-256     1   52   69  -0.210   0.160        0
  3999  1823-42-362    -2   52   70  -0.480  -0.030        0
  4000  1823-48-357    -2   52   70  -0.480  -0.030        0
  4001  1823-56-32     -2   52   70  -0.480  -0.030        0
  4002  1823-60-313    -2   52   70  -0.480  -0.030        0
  4003  1823-66-19     -2   52   70  -0.480  -0.030        0
  4004  1823-71-49     -2   52   70  -0.480  -0.030        0
  4005  1823-71-365    -2   52   70  -0.480  -0.030        0
  4006  1744-10-256     1   52   70   0.020  -0.320        0
  4007  1907-12-116     2   50   68   0.450   0.310        0
  4008  1907-22-79      2   50   68   0.450   0.310        0
  4009  1907-42-362     2   50   68   0.450   0.310        0
  4010  1907-48-357     2   50   68   0.450   0.310        0
  4011  1907-71-365     2   50   68   0.450   0.310        0
  4012  1906-42-362    -2   51   68  -0.480   0.380        0
  4013  1906-48-357    -2   51   68  -0.480   0.380        0
  4014  1906-55-356    -2   51   68  -0.480   0.380        0
  4015  1906-60-341    -2   51   68  -0.480   0.380        0
  4016  1906-65-355    -2   51   68  -0.480   0.380        0
  4017  1906-71-32     -2   51   68  -0.480   0.380        0
  4018  1906-71-365    -2   51   68  -0.480   0.380        0
  4019  1899-66-19      1   51   67  -0.400   0.440        0
  4020  1899-71-32      1   51   67  -0.400   0.440        0
  4021  1899-71-365     1   51   67  -0.400   0.440        0
  4022  1778-12-261     2   52   67  -0.210   0.440        0
  4023  1764-10-257     1   52   67  -0.170   0.440        0
  4024  1765-42-362    -2   52   67  -0.290   0.210        0
  4025  1765-48-357    -2   52   67  -0.290   0.210        0
  4026  1765-55-354    -2   52   67  -0.290   0.210        0
  4027  1765-60-349    -2   52   67  -0.290   0.210        0
  4028  1765-66-56     -2   52   67  -0.290   0.210        0
  4029  1765-71-32     -2   52   67  -0.290   0.210        0
  4030  1765-71-365    -2   52   67  -0.290   0.210        0
  4031  1816-10-153     1   52   68  -0.440   0.190        0
  4032  1825-42-335    -2   52   68  -0.480   0.120        0
  4033  1825-48-357    -2   52   68  -0.480   0.120        0
  4034  1825-56-27     -2   52   68  -0.480   0.120        0
  4035  1825-61-42     -2   52   68  -0.480   0.120        0
  4036  1825-66-19     -2   52   68  -0.480   0.120        0
  4037  1825-71-32     -2   52   68  -0.480   0.120        0
  4038  1825-71-365    -2   52   68  -0.480   0.120        0
  4039  1888-22-79      2   51   66  -0.240   0.070        0
  4040  1888-32-32      2   51   66  -0.240   0.070        0
  4041  1888-42-362     2   51   66  -0.240   0.070        0
  4042  1888-48-357     2   51   66  -0.240   0.070        0
  4043  1888-65-355     2   51   66  -0.240   0.070        0
  4044  1888-71-32      2   51   66  -0.240   0.070        0
  4045  1888-71-365     2   51   66  -0.240   0.070        0
  4046  1890-42-362    -2   51   66  -0.240   0.070        0
  4047  1890-48-357    -2   51   66  -0.240   0.070        0
  4048  1890-55-350    -2   51   66  -0.240   0.070        0
  4049  1890-61-42     -2   51   66  -0.240   0.070        0
  4050  1890-66-19     -2   51   66  -0.240   0.070        0
  4051  1890-71-32     -2   51   66  -0.240   0.070        0
  4052  1890-71-365    -2   51   66  -0.240   0.070        0
  4053  1812-12-91      1   51   66   0.440   0.100        0
  4054  1812-22-62      1   51   66   0.440   0.100        0
  4055  1812-32-60      1   51   66   0.440   0.100        0
  4056  1827-42-362     2   51   66   0.480   0.100        0
  4057  1827-48-357     2   51   66   0.480   0.100        0
  4058  1827-56-25      2   51   66   0.480   0.100        0
  4059  1827-61-42      2   51   66   0.480   0.100        0
  4060  1827-66-19      2   51   66   0.480   0.100        0
  4061  1827-71-32      2   51   66   0.480   0.100        0
  4062  1827-71-365     2   51   66   0.480   0.100        0
  4063  1779-12-109     1   52   66  -0.250  -0.250        0
  4064  1779-17-80      1   52   66  -0.250  -0.250        0
  4065  1779-22-79      1   52   66  -0.250  -0.250        0
  4066  1779-42-362     1   52   66  -0.250  -0.250        0
  4067  1870-42-364     1   51   64   0.180   0.180        0
  4068  1817-56-20      2   52   64  -0.480   0.120        0
  4069  1817-66-34      2   52   64  -0.480   0.120        0
  4070  1747-71-60      2   52   64  -0.020  -0.400        0
  4071  1722-1-152      1   52   64   0.400   0.480        0
  4072  1722-22-80      1   52   64   0.400   0.480        0
  4073  1722-26-349     1   52   64   0.400   0.480        0
  4074  1722-32-32      1   52   64   0.400   0.480        0
  4075  1722-42-362     1   52   64   0.400   0.480        0
  4076  1722-48-357     1   52   64   0.400   0.480        0
  4077  1722-56-24      1   52   64   0.400   0.480        0
  4078  1722-61-11      1   52   64   0.400   0.480        0
  4079  1722-66-59      1   52   64   0.400   0.480        0
  4080  1722-71-56      1   52   64   0.400   0.480        0
  4081  1722-71-365     1   52   64   0.400   0.480        0
  4082  1668-56-20      1   53   64  -0.140   0.090        0
  4083  1666-66-34      2   53   64  -0.100   0.190        0
  4084  1718-56-20     -2   52   63   0.250   0.310        0
  4085  1718-61-59     -2   52   63   0.250   0.310        0
  4086  1718-66-34     -2   52   63   0.250   0.310        0
  4087  1662-56-20     -2   53   63   0.010   0.050        0
  4088  1664-66-34      2   53   63  -0.210   0.440        0
  4089  1664-71-60      2   53   63  -0.210   0.440        0
  4090  1641-66-34      2   53   64   0.240   0.380        0
  4091  1619-1-365     -2   54   65  -0.300  -0.490        0
  4092  1619-8-57      -2   54   65  -0.300  -0.490        0
  4093  1619-12-59     -2   54   65  -0.300  -0.490        0
  4094  1619-17-87     -2   54   65  -0.300  -0.490        0
  4095  1619-22-79     -2   54   65  -0.300  -0.490        0
  4096  1619-42-335    -2   54   65  -0.300  -0.490        0
  4097  1608-35-121    -2   54   65  -0.070  -0.490        0
  4098  1608-42-362    -2   54   65  -0.070  -0.490        0
  4099  1608-48-357    -2   54   65  -0.070  -0.490        0
  4100  1608-55-340    -2   54   65  -0.070  -0.490        0
  4101  1608-60-348    -2   54   65  -0.070  -0.490        0
  4102  1608-66-5      -2   54   65  -0.070  -0.490        0
  4103  1608-71-1      -2   54   65  -0.070  -0.490        0
  4104  1608-71-365    -2   54   65  -0.070  -0.490        0
  4105  1714-56-33      1   52   66   0.320  -0.220        0
  4106  1714-71-29      1   52   66   0.320  -0.220        0
  4107  1714-71-365     1   52   66   0.320  -0.220        0
  4108  1715-66-59      1   52   66   0.320  -0.220        0
  4109  1715-71-29      1   52   66   0.320  -0.220        0
  4110  1715-71-365     1   52   66   0.320  -0.220        0
  4111  1716-66-59      1   52   66   0.320  -0.420        0
  4112  1716-71-29      1   52   66   0.320  -0.420        0
  4113  1716-71-365     1   52   66   0.320  -0.420        0
  4114  1717-71-32      2   52   66   0.320  -0.420        0
  4115  1717-71-365     2   52   66   0.320  -0.420        0
  4116  1689-71-29      1   52   66   0.480  -0.420        0
  4117  1689-71-365     1   52   66   0.480  -0.420        0
  4118  1696-66-59      1   52   66   0.480  -0.420        0
  4119  1696-71-29      1   52   66   0.480  -0.420        0
  4120  1696-71-365     1   52   66   0.480  -0.420        0
  4121  1673-2-274     -2   53   66  -0.370   0.460        0
  4122  1673-8-57      -2   53   66  -0.370   0.460        0
  4123  1673-12-59     -2   53   66  -0.370   0.460        0
  4124  1673-17-87     -2   53   66  -0.370   0.460        0
  4125  1673-22-79     -2   53   66  -0.370   0.460        0
  4126  1673-42-363    -2   53   66  -0.370   0.460        0
  4127  1673-48-357    -2   53   66  -0.370   0.460        0
  4128  1673-56-24     -2   53   66  -0.370   0.460        0
  4129  1723-1-32       2   52   66   0.320  -0.480        0
  4130  1723-12-59      2   52   66   0.320  -0.480        0
  4131  1723-17-87      2   52   66   0.320  -0.480        0
  4132  1723-22-80      2   52   66   0.320  -0.480        0
  4133  1723-42-363     2   52   66   0.320  -0.480        0
  4134  1723-48-357     2   52   66   0.320  -0.480        0
  4135  1723-56-24      2   52   66   0.320  -0.480        0
  4136  1723-60-348     2   52   66   0.320  -0.480        0
  4137  1723-66-59      2   52   66   0.320  -0.480        0
  4138  1723-71-32      2   52   66   0.320  -0.480        0
  4139  1723-71-365     2   52   66   0.320  -0.480        0
  4140  1724-1-365      2   52   65   0.360   0.130        0
  4141  1724-12-59      2   52   65   0.360   0.130        0
  4142  1724-17-82      2   52   65   0.360   0.130        0
  4143  1724-22-80      2   52   65   0.360   0.130        0
  4144  1724-42-363     2   52   65   0.360   0.130        0
  4145  1724-48-357     2   52   65   0.360   0.130        0
  4146  1724-56-20      2   52   65   0.360   0.130        0
  4147  1724-60-348     2   52   65   0.360   0.130        0
  4148  1724-66-59      2   52   65   0.360   0.130        0
  4149  1724-71-56      2   52   65   0.360   0.130        0
  4150  1724-71-365     2   52   65   0.360   0.130        0
  4151  1694-17-82     -2   53   68  -0.490   0.220        0
  4152  1694-22-80     -2   53   68  -0.490   0.220        0
  4153  1699-42-363     2   52   68   0.440   0.090        0
  4154  1699-48-357     2   52   68   0.440   0.090        0
  4155  1699-55-356     2   52   68   0.440   0.090        0
  4156  1699-60-349     2   52   68   0.440   0.090        0
  4157  1699-66-56      2   52   68   0.440   0.090        0
  4158  1699-71-32      2   52   68   0.440   0.090        0
  4159  1699-71-365     2   52   68   0.440   0.090        0
  4160  1695-7-158      2   52   68   0.480  -0.330        0
  4161  1695-42-363     2   52   68   0.480  -0.330        0
  4162  1695-48-357     2   52   68   0.480  -0.330        0
  4163  1695-56-24      2   52   68   0.480  -0.330        0
  4164  1695-60-336     2   52   68   0.480  -0.330        0
  4165  1695-66-56      2   52   68   0.480  -0.330        0
  4166  1695-71-56      2   52   68   0.480  -0.330        0
  4167  1695-71-365     2   52   68   0.480  -0.330        0
  4168  1658-2-217     -2   53   67   0.090  -0.150        0
  4169  1658-8-58      -2   53   67   0.090  -0.150        0
  4170  1658-12-59     -2   53   67   0.090  -0.150        0
  4171  1658-17-87     -2   53   67   0.090  -0.150        0
  4172  1658-22-81     -2   53   67   0.090  -0.150        0
  4173  1652-42-363     2   53   67   0.130  -0.150        0
  4174  1652-48-357     2   53   67   0.130  -0.150        0
  4175  1652-56-24      2   53   67   0.130  -0.150        0
  4176  1652-60-349     2   53   67   0.130  -0.150        0
  4177  1652-66-1       2   53   67   0.130  -0.150        0
  4178  1652-71-76      2   53   67   0.130  -0.150        0
  4179  1652-71-365     2   53   67   0.130  -0.150        0
  4180  1633-12-96      1   53   68   0.430   0.150        0
  4181  1633-17-89      1   53   68   0.430   0.150        0
  4182  1633-42-355     1   53   68   0.430   0.150        0
  4183  1713-61-54      2   52   70   0.320   0.230        0
  4184  1713-66-56      2   52   70   0.320   0.230        0
  4185  1713-71-64      2   52   70   0.320   0.230        0
  4186  1713-71-365     2   52   70   0.320   0.230        0
  4187  1670-42-357    -2   53   70  -0.180  -0.350        0
  4188  1656-22-80      1   53   70   0.130  -0.320        0
  4189  1656-31-351     1   53   70   0.130  -0.320        0
  4190  1656-37-343     1   53   70   0.130  -0.320        0
  4191  1656-55-360     1   53   70   0.130  -0.320        0
  4192  1656-61-42      1   53   70   0.130  -0.320        0
  4193  1656-66-56      1   53   70   0.130  -0.320        0
  4194  1656-71-33      1   53   70   0.130  -0.320        0
  4195  1656-71-365     1   53   70   0.130  -0.320        0
  4196  1655-17-89     -2   53   70   0.090   0.040        0
  4197  1655-22-80     -2   53   70   0.090   0.040        0
  4198  1655-42-355    -2   53   70   0.090   0.040        0
  4199  1655-48-364    -2   53   70   0.090   0.040        0
  4200  1651-42-362     2   53   69   0.090  -0.390        0
  4201  1651-48-355     2   53   69   0.090  -0.390        0
  4202  1657-60-349    -2   53   69   0.050  -0.290        0
  4203  1657-66-56     -2   53   69   0.050  -0.290        0
  4204  1657-71-32     -2   53   69   0.050  -0.290        0
  4205  1657-71-365    -2   53   69   0.050  -0.290        0
  4206  1614-12-96      1   54   70  -0.220  -0.280        0
  4207  1614-17-89      1   54   70  -0.220  -0.280        0
  4208  1614-22-80      1   54   70  -0.220  -0.280        0
  4209  1615-17-89      1   54   70  -0.220  -0.320        0
  4210  1615-22-80      1   54   70  -0.220  -0.320        0
  4211  1615-42-356     1   54   70  -0.220  -0.320        0
  4212  1615-48-355     1   54   70  -0.220  -0.320        0
  4213  1615-56-20      1   54   70  -0.220  -0.320        0
  4214  1615-61-31      1   54   70  -0.220  -0.320        0
  4215  1615-66-56      1   54   70  -0.220  -0.320        0
  4216  1615-71-33      1   54   70  -0.220  -0.320        0
  4217  1615-71-365     1   54   70  -0.220  -0.320        0
  4218  1611-42-356    -2   54   70  -0.150  -0.220        0
  4219  1611-48-355    -2   54   70  -0.150  -0.220        0
  4220  1611-56-20     -2   54   70  -0.150  -0.220        0
  4221  1611-61-31     -2   54   70  -0.150  -0.220        0
  4222  1611-66-56     -2   54   70  -0.150  -0.220        0
  4223  1611-71-33     -2   54   70  -0.150  -0.220        0
  4224  1611-71-365    -2   54   70  -0.150  -0.220        0
  4225  1708-42-357    -2   52   72   0.360   0.090        0
  4226  1708-48-341    -2   52   72   0.360   0.090        0
  4227  1693-17-87      1   52   72   0.470   0.090        0
  4228  1693-22-79      1   52   72   0.470   0.090        0
  4229  1693-42-356     1   52   72   0.470   0.090        0
  4230  1693-48-356     1   52   72   0.470   0.090        0
  4231  1687-42-356    -2   52   72   0.470   0.090        0
  4232  1687-48-356    -2   52   72   0.470   0.090        0
  4233  1687-56-27     -2   52   72   0.470   0.090        0
  4234  1687-61-26     -2   52   72   0.470   0.090        0
  4235  1687-66-56     -2   52   72   0.470   0.090        0
  4236  1687-71-33     -2   52   72   0.470   0.090        0
  4237  1687-71-365    -2   52   72   0.470   0.090        0
  4238  1681-17-87      1   53   71  -0.410   0.080        0
  4239  1681-22-79      1   53   71  -0.410   0.080        0
  4240  1681-26-294     1   53   71  -0.410   0.080        0
  4241  1681-48-356     1   53   71  -0.410   0.080        0
  4242  1681-66-56      1   53   71  -0.410   0.080        0
  4243  1681-71-33      1   53   71  -0.410   0.080        0
  4244  1681-71-365     1   53   71  -0.410   0.080        0
  4245  1688-42-356    -2   53   71  -0.410   0.080        0
  4246  1688-48-356    -2   53   71  -0.410   0.080        0
  4247  1688-55-364    -2   53   71  -0.410   0.080        0
  4248  1688-61-21     -2   53   71  -0.410   0.080        0
  4249  1688-66-56     -2   53   71  -0.410   0.080        0
  4250  1688-71-33     -2   53   71  -0.410   0.080        0
  4251  1688-71-365    -2   53   71  -0.410   0.080        0
  4252  1596-12-96      1   54   71  -0.340  -0.210        0
  4253  1596-22-81      1   54   71  -0.340  -0.210        0
  4254  1596-42-356     1   54   71  -0.340  -0.210        0
  4255  1621-42-356    -2   54   71  -0.340  -0.180        0
  4256  1621-48-356    -2   54   71  -0.340  -0.180        0
  4257  1621-56-6      -2   54   71  -0.340  -0.180        0
  4258  1621-61-42     -2   54   71  -0.340  -0.180        0
  4259  1621-65-355    -2   54   71  -0.340  -0.180        0
  4260  1621-71-33     -2   54   71  -0.340  -0.180        0
  4261  1621-71-365    -2   54   71  -0.340  -0.180        0
  4262  1605-11-45      1   54   71   0.040  -0.280        0
  4263  1630-17-87      1   54   72  -0.490   0.060        0
  4264  1630-22-79      1   54   72  -0.490   0.060        0
  4265  1630-42-355     1   54   72  -0.490   0.060        0
  4266  1630-48-356     1   54   72  -0.490   0.060        0
  4267  1630-66-59      1   54   72  -0.490   0.060        0
  4268  1630-71-33      1   54   72  -0.490   0.060        0
  4269  1630-71-365     1   54   72  -0.490   0.060        0
  4270  1629-42-355     2   53   72   0.470   0.060        0
  4271  1629-48-356     2   53   72   0.470   0.060        0
  4272  1629-56-9       2   53   72   0.470   0.060        0
  4273  1629-61-21      2   53   72   0.470   0.060        0
  4274  1629-66-59      2   53   72   0.470   0.060        0
  4275  1629-71-33      2   53   72   0.470   0.060        0
  4276  1629-71-365     2   53   72   0.470   0.060        0
  4277  1683-22-79     -2   53   74  -0.420   0.170        0
  4278  1683-26-349    -2   53   74  -0.420   0.170        0
  4279  1683-42-355    -2   53   74  -0.420   0.170        0
  4280  1683-48-355     2   53   74  -0.420   0.170        0
  4281  1683-56-27      2   53   74  -0.420   0.170        0
  4282  1683-60-349     2   53   74  -0.420   0.170        0
  4283  1683-66-54     -2   53   74  -0.420   0.170        0
  4284  1679-42-355     2   53   74  -0.420   0.170        0
  4285  1679-48-355     2   53   74  -0.420   0.170        0
  4286  1679-56-27      2   53   74  -0.420   0.170        0
  4287  1679-61-11      2   53   74  -0.420   0.170        0
  4288  1680-66-54      2   53   74  -0.420   0.170        0
  4289  1654-42-355     2   53   73  -0.030   0.130        0
  4290  1654-48-355     2   53   73  -0.030   0.130        0
  4291  1654-56-27      2   53   73  -0.030   0.130        0
  4292  1654-61-14      2   53   73  -0.030   0.130        0
  4293  1654-66-54      2   53   73  -0.030   0.130        0
  4294  1654-71-64      2   53   73  -0.030   0.130        0
  4295  1654-71-365     2   53   73  -0.030   0.130        0
  4296  1660-42-355     2   53   73  -0.030   0.130        0
  4297  1660-48-355     2   53   73  -0.030   0.130        0
  4298  1660-56-27      2   53   73  -0.030   0.130        0
  4299  1660-60-349     2   53   73  -0.030   0.130        0
  4300  1660-66-54      2   53   73  -0.030   0.130        0
  4301  1660-71-64      2   53   73  -0.030   0.130        0
  4302  1660-71-365     2   53   73  -0.030   0.130        0
  4303  1554-22-81     -2   55   74   0.150   0.080        0
  4304  1554-27-15     -2   55   74   0.150   0.080        0
  4305  1554-32-60     -2   55   74   0.150   0.080        0
  4306  1554-56-26      2   55   74   0.150   0.080        0
  4307  1554-61-12      2   55   74   0.150   0.080        0
  4308  1554-66-59      2   55   74   0.150   0.080        0
  4309  1554-71-54      2   55   74   0.150   0.080        0
  4310  1554-71-365     2   55   74   0.150   0.080        0
  4311  1504-22-60     -2   56   74   0.100   0.110        0
  4312  1548-7-158      2   55   72   0.040  -0.360        0
  4313  1548-11-82      2   55   72   0.040  -0.360        0
  4314  1548-17-87      2   55   72   0.040  -0.360        0
  4315  1548-22-81      2   55   72   0.040  -0.360        0
  4316  1548-26-278     2   55   72   0.040  -0.360        0
  4317  1550-48-365    -2   55   72   0.070  -0.360        0
  4318  1550-56-6      -2   55   72   0.070  -0.360        0
  4319  1550-61-27     -2   55   72   0.070  -0.360        0
  4320  1550-66-28     -2   55   72   0.070  -0.360        0
  4321  1550-71-13     -2   55   72   0.070  -0.360        0
  4322  1550-71-365    -2   55   72   0.070  -0.360        0
  4323  1559-66-46      1   55   71  -0.120  -0.310        0
  4324  1559-71-365     1   55   71  -0.120  -0.310        0
  4325  1569-32-60      1   55   71  -0.270   0.340        0
  4326  1569-37-89      1   55   71  -0.270   0.340        0
  4327  1569-42-356     1   55   71  -0.270   0.340        0
  4328  1569-48-355     1   55   71  -0.270   0.340        0
  4329  1569-56-26      1   55   71  -0.270   0.340        0
  4330  1569-61-24      1   55   71  -0.270   0.340        0
  4331  1569-66-28      1   55   71  -0.270   0.340        0
  4332  1569-71-365     1   55   71  -0.270   0.340        0
  4333  1540-17-86      1   55   72   0.190  -0.490        0
  4334  1540-22-81      1   55   72   0.190  -0.490        0
  4335  1540-26-279     1   55   72   0.190  -0.490        0
  4336  1540-42-355     1   55   72   0.190  -0.490        0
  4337  1540-48-355     1   55   72   0.190  -0.490        0
  4338  1540-56-26      1   55   72   0.190  -0.490        0
  4339  1540-60-350     1   55   72   0.190  -0.490        0
  4340  1540-66-28      1   55   72   0.190  -0.490        0
  4341  1540-71-365     1   55   72   0.190  -0.490        0
  4342  1526-17-87      2   56   71  -0.350   0.250        0
  4343  1526-22-81      2   56   71  -0.350   0.250        0
  4344  1526-26-349     2   56   71  -0.350   0.250        0
  4345  1526-32-60      2   56   71  -0.350   0.250        0
  4346  1526-42-356     2   56   71  -0.350   0.250        0
  4347  1526-48-355     2   56   71  -0.350   0.250        0
  4348  1526-56-26      2   56   71  -0.350   0.250        0
  4349  1526-60-350     2   56   71  -0.350   0.250        0
  4350  1526-65-355     2   56   71  -0.350   0.250        0
  4351  1526-71-362     2   56   71  -0.350   0.250        0
  4352  1518-42-357    -2   56   71  -0.200   0.250        0
  4353  1517-71-53      2   56   73  -0.120  -0.480        0
  4354  1517-71-365     2   56   73  -0.120  -0.480        0
  4355  1564-56-26      2   55   70  -0.150   0.070        0
  4356  1564-71-365     2   55   70  -0.150   0.070        0
  4357  1552-12-59      1   55   69  -0.080   0.070        0
  4358  1552-17-85      1   55   69  -0.080   0.070        0
  4359  1552-22-80      1   55   69  -0.080   0.070        0
  4360  1557-42-356     1   55   69  -0.080   0.030        0
  4361  1557-48-355     1   55   69  -0.080   0.030        0
  4362  1557-56-20      1   55   69  -0.080   0.030        0
  4363  1557-71-13      1   55   69  -0.080   0.030        0
  4364  1557-71-365     1   55   69  -0.080   0.030        0
  4365  1570-2-98       1   55   69  -0.310  -0.190        0
  4366  1631-12-96      1   56   69  -0.200   0.200        0
  4367  1631-17-87      1   56   69  -0.200   0.200        0
  4368  1631-22-80      1   56   69  -0.200   0.200        0
  4369  1631-26-279     1   56   69  -0.200   0.200        0
  4370  1631-42-355     1   56   69  -0.200   0.200        0
  4371  1631-48-355     1   56   69  -0.200   0.200        0
  4372  1631-56-26      1   56   69  -0.200   0.200        0
  4373  1631-66-32      1   56   69  -0.200   0.200        0
  4374  1631-71-33      1   56   69  -0.200   0.200        0
  4375  1631-71-365     1   56   69  -0.200   0.200        0
  4376  1519-42-355    -2   56   69  -0.200   0.160        0
  4377  1519-48-355    -2   56   69  -0.200   0.160        0
  4378  1519-56-20     -2   56   69  -0.200   0.160        0
  4379  1519-61-18     -2   56   69  -0.200   0.160        0
  4380  1519-66-32     -2   56   69  -0.200   0.160        0
  4381  1519-71-33     -2   56   69  -0.200   0.160        0
  4382  1519-71-365    -2   56   69  -0.200   0.160        0
  4383  1542-56-20      2   55   70   0.230   0.140        0
  4384  1542-60-350     2   55   70   0.230   0.140        0
  4385  1542-66-54      2   55   70   0.230   0.140        0
  4386  1542-71-13      2   55   70   0.230   0.140        0
  4387  1542-71-365     2   55   70   0.230   0.140        0
  4388  1520-17-87      1   56   70  -0.230  -0.050        0
  4389  1520-22-80      1   56   70  -0.230  -0.050        0
  4390  1520-32-60      1   56   70  -0.230  -0.050        0
  4391  1520-42-356     1   56   70  -0.230  -0.050        0
  4392  1597-56-27      1   54   69   0.240  -0.490        0
  4393  1597-66-26      1   54   69   0.240  -0.490        0
  4394  1597-71-28      1   54   69   0.240  -0.490        0
  4395  1597-71-365     1   54   69   0.240  -0.490        0
  4396  1581-11-256     1   55   68  -0.500   0.450        0
  4397  1583-56-27      1   54   68   0.430  -0.400        0
  4398  1583-66-26      1   54   68   0.430  -0.400        0
  4399  1583-71-28      1   54   68   0.430  -0.400        0
  4400  1583-71-29      1   54   68   0.430  -0.400        0
  4401  1583-71-365     1   54   68   0.430  -0.400        0
  4402  1565-71-28      2   55   69  -0.190  -0.490        0
  4403  1565-71-365     2   55   69  -0.190  -0.490        0
  4404  1595-11-257     2   54   67   0.310   0.440        0
  4405  1533-8-65       1   55   67   0.350  -0.310        0
  4406  1533-12-96      1   55   67   0.350  -0.310        0
  4407  1533-17-82      1   55   67   0.350  -0.310        0
  4408  1533-22-80      1   55   67   0.350  -0.310        0
  4409  1533-27-15      1   55   67   0.350  -0.310        0
  4410  1533-42-363     1   55   67   0.350  -0.310        0
  4411  1537-42-363     2   55   67   0.310  -0.310        0
  4412  1537-48-357     2   55   67   0.310  -0.310        0
  4413  1541-66-55      1   55   67   0.270  -0.410        0
  4414  1541-71-76      1   55   67   0.270  -0.410        0
  4415  1541-71-365     1   55   67   0.270  -0.410        0
  4416  1510-42-357     2   56   67  -0.040  -0.370        0
  4417  1510-48-337     2   56   67  -0.040  -0.370        0
  4418  1510-56-18      2   56   67  -0.040  -0.370        0
  4419  1510-60-333     2   56   67  -0.040  -0.370        0
  4420  1510-65-299     2   56   67  -0.040  -0.370        0
  4421  1510-71-11      2   56   67  -0.040  -0.370        0
  4422  1510-71-365     2   56   67  -0.040  -0.370        0
  4423  1511-31-351     2   56   67  -0.040  -0.370        0
  4424  1511-37-27      2   56   67  -0.040  -0.370        0
  4425  1511-42-357     2   56   67  -0.040  -0.370        0
  4426  1511-48-337     2   56   67  -0.040  -0.370        0
  4427  1511-56-18      2   56   67  -0.040  -0.370        0
  4428  1511-60-333     2   56   67  -0.040  -0.370        0
  4429  1511-65-299     2   56   67  -0.040  -0.370        0
  4430  1511-71-12      2   56   67  -0.040  -0.370        0
  4431  1511-71-365     2   56   67  -0.040  -0.370        0
  4432  1512-31-351     2   56   67  -0.040  -0.370        0
  4433  1512-42-357     2   56   67  -0.040  -0.370        0
  4434  1512-48-337     2   56   67  -0.040  -0.370        0
  4435  1512-56-18      2   56   67  -0.040  -0.370        0
  4436  1513-31-351     2   56   67  -0.040  -0.370        0
  4437  1513-42-357     2   56   67  -0.040  -0.370        0
  4438  1513-48-337     2   56   67  -0.040  -0.370        0
  4439  1513-56-18      2   56   67  -0.040  -0.370        0
  4440  1513-60-333     2   56   67  -0.040  -0.370        0
  4441  1513-65-299     2   56   67  -0.040  -0.370        0
  4442  1513-71-11      2   56   67  -0.040  -0.370        0
  4443  1513-71-365     2   56   67  -0.040  -0.370        0
  4444  1505-66-26      1   56   68   0.110   0.450        0
  4445  1505-71-53      1   56   68   0.110   0.450        0
  4446  1505-71-365     1   56   68   0.110   0.450        0
  4447  1546-8-65       2   55   66   0.120   0.040        0
  4448  1546-10-31      2   55   66   0.120   0.040        0
  4449  1546-17-82      2   55   66   0.120   0.040        0
  4450  1546-22-81      2   55   66   0.120   0.040        0
  4451  1551-42-363    -2   55   66   0.120  -0.250        0
  4452  1551-48-357    -2   55   66   0.120  -0.250        0
  4453  1551-56-13     -2   55   66   0.120  -0.250        0
  4454  1551-61-31     -2   55   66   0.120  -0.250        0
  4455  1551-66-19     -2   55   66   0.120  -0.250        0
  4456  1551-71-32     -2   55   66   0.120  -0.250        0
  4457  1551-71-365    -2   55   66   0.120  -0.250        0
  4458  1525-10-154     2   56   65  -0.380   0.330        0
  4459  1525-22-83      2   56   65  -0.380   0.330        0
  4460  1525-32-60      2   56   65  -0.380   0.330        0
  4461  1525-42-363     2   56   65  -0.380   0.330        0
  4462  1525-56-25      2   56   65  -0.380   0.330        0
  4463  1525-60-351     2   56   65  -0.380   0.330        0
  4464  1525-66-1       2   56   65  -0.380   0.330        0
  4465  1525-71-32      2   56   65  -0.380   0.330        0
  4466  1525-71-365     2   56   65  -0.380   0.330        0
  4467  1813-17-82      2   55   66   0.460   0.040        0
  4468  1813-22-82      2   55   66   0.460   0.040        0
  4469  1813-26-294     2   55   66   0.460   0.040        0
  4470  1813-42-363     2   55   66   0.460   0.040        0
  4471  1813-48-357     2   55   66   0.460   0.040        0
  4472  1813-56-25      2   55   66   0.460   0.040        0
  4473  1813-60-351     2   55   66   0.460   0.040        0
  4474  1813-66-19      2   55   66   0.460   0.040        0
  4475  1813-71-32      2   55   66   0.460   0.040        0
  4476  1813-71-365     2   55   66   0.460   0.040        0
  4477  1538-10-154    -2   55   66   0.310  -0.280        0
  4478  1538-17-86     -2   55   66   0.310  -0.280        0
  4479  1538-22-82     -2   55   66   0.310  -0.280        0
  4480  1538-42-363    -2   55   66   0.310  -0.280        0
  4481  1567-12-59     -2   55   64  -0.230   0.190        0
  4482  1567-17-85     -2   55   64  -0.230   0.190        0
  4483  1567-22-53     -2   55   64  -0.230   0.190        0
  4484  1567-27-15     -2   55   64  -0.230   0.190        0
  4485  1567-32-65     -2   55   64  -0.230   0.190        0
  4486  1578-42-362     2   55   64  -0.420   0.190        0
  4487  1579-34-182    -2   55   63  -0.420   0.240        0
  4488  1466-12-96      2   57   63   0.070   0.370        0
  4489  1466-17-89      2   57   63   0.070   0.370        0
  4490  1466-32-60      2   57   63   0.070   0.370        0
  4491  1466-37-89      2   57   63   0.070   0.370        0
  4492  1466-42-363     2   57   63   0.070   0.370        0
  4493  1466-48-357     2   57   63   0.070   0.370        0
  4494  1466-56-25      2   57   63   0.070   0.370        0
  4495  1466-71-365     2   57   63   0.070   0.370        0
  4496  1467-17-89      2   57   63   0.110   0.410        0
  4497  1467-22-60      2   57   63   0.110   0.410        0
  4498  1467-48-357     2   57   63   0.110   0.410        0
  4499  1467-56-25      2   57   63   0.110   0.410        0
  4500  1467-60-351     2   57   63   0.110   0.410        0
  4501  1467-65-355     2   57   63   0.110   0.410        0
  4502  1467-71-52      2   57   63   0.110   0.410        0
  4503  1467-71-365     2   57   63   0.110   0.410        0
  4504  1470-17-82      2   57   66  -0.120  -0.020        0
  4505  1470-22-82      2   57   66  -0.120  -0.020        0
  4506  1470-42-362     2   57   66  -0.120  -0.020        0
  4507  1470-48-357     2   57   66  -0.120  -0.020        0
  4508  1470-56-18      2   57   66  -0.120  -0.020        0
  4509  1470-60-308     2   57   66  -0.120  -0.020        0
  4510  1470-71-365     2   57   66  -0.120  -0.020        0
  4511  1500-27-60     -2   56   65   0.270   0.130        0
  4512  1500-42-362    -2   56   65   0.270   0.130        0
  4513  1500-48-357    -2   56   65   0.270   0.130        0
  4514  1500-56-25     -2   56   65   0.270   0.130        0
  4515  1500-60-351    -2   56   65   0.270   0.130        0
  4516  1459-11-68      2   57   65   0.180  -0.190        0
  4517  1459-17-82      2   57   65   0.180  -0.190        0
  4518  1459-22-60      2   57   65   0.180  -0.190        0
  4519  1459-26-293     2   57   65   0.180  -0.190        0
  4520  1459-42-363     2   57   65   0.180  -0.190        0
  4521  1459-48-357     2   57   65   0.180  -0.190        0
  4522  1459-56-25      2   57   65   0.180  -0.190        0
  4523  1459-60-351     2   57   65   0.180  -0.190        0
  4524  1459-66-12      2   57   65   0.180  -0.190        0
  4525  1459-71-365     2   57   65   0.180  -0.190        0
  4526  1455-12-96      1   57   66   0.450  -0.020        0
  4527  1455-17-82      1   57   66   0.450  -0.020        0
  4528  1443-12-96      2   58   66  -0.430   0.010        0
  4529  1443-17-82      2   58   66  -0.430   0.010        0
  4530  1443-32-60      2   58   66  -0.430   0.010        0
  4531  1443-38-60      2   58   66  -0.430   0.010        0
  4532  1443-42-364     2   58   66  -0.430   0.010        0
  4533  1443-48-341     2   58   66  -0.430   0.010        0
  4534  1486-56-56      1   57   68  -0.390   0.090        0
  4535  1486-71-365     1   57   68  -0.390   0.090        0
  4536  1485-71-365     1   57   68  -0.390   0.090        0
  4537  1475-11-305     1   57   67  -0.200  -0.270        0
  4538  1465-17-82      1   57   67   0.180  -0.210        0
  4539  1465-22-82      1   57   67   0.180  -0.210        0
  4540  1465-42-356     1   57   67   0.180  -0.210        0
  4541  1465-48-355     1   57   67   0.180  -0.210        0
  4542  1465-56-25      1   57   67   0.180  -0.210        0
  4543  1465-60-351     1   57   67   0.180  -0.210        0
  4544  1465-66-1       1   57   67   0.180  -0.210        0
  4545  1465-71-365     1   57   67   0.180  -0.210        0
  4546  1440-17-82     -2   57   68   0.260  -0.430        0
  4547  1440-22-80     -2   57   68   0.260  -0.430        0
  4548  1440-32-60     -2   57   68   0.260  -0.430        0
  4549  1440-37-90     -2   57   68   0.260  -0.430        0
  4550  1440-48-355    -2   57   68   0.260  -0.430        0
  4551  1441-11-283    -2   58   68  -0.360   0.450        0
  4552  1474-17-87      1   57   70  -0.200   0.140        0
  4553  1474-22-80      1   57   70  -0.200   0.140        0
  4554  1474-61-31      1   57   70  -0.200   0.140        0
  4555  1474-71-68      1   57   70  -0.200   0.140        0
  4556  1474-71-365     1   57   70  -0.200   0.140        0
  4557  1478-48-355    -2   57   70  -0.240  -0.050        0
  4558  1478-56-26     -2   57   70  -0.240  -0.050        0
  4559  1478-60-350    -2   57   70  -0.240  -0.050        0
  4560  1478-65-355    -2   57   70  -0.240  -0.050        0
  4561  1478-71-68     -2   57   70  -0.240  -0.050        0
  4562  1478-71-365    -2   57   70  -0.240  -0.050        0
  4563  1453-17-85      1   57   69   0.370  -0.090        0
  4564  1453-22-80      1   57   69   0.370  -0.090        0
  4565  1453-42-356     1   57   69   0.370  -0.090        0
  4566  1453-48-355     1   57   69   0.370  -0.090        0
  4567  1453-66-49      1   57   69   0.370  -0.090        0
  4568  1453-71-68      1   57   69   0.370  -0.090        0
  4569  1453-71-365     1   57   69   0.370  -0.090        0
  4570  1454-42-356    -2   57   69   0.330  -0.090        0
  4571  1454-48-355    -2   57   69   0.330  -0.090        0
  4572  1454-55-362    -2   57   69   0.330  -0.090        0
  4573  1454-61-31     -2   57   69   0.330  -0.090        0
  4574  1454-66-49     -2   57   69   0.330  -0.090        0
  4575  1454-71-68     -2   57   69   0.330  -0.090        0
  4576  1454-71-365    -2   57   69   0.330  -0.090        0
  4577  1447-66-49      1   57   69   0.410   0.100        0
  4578  1447-71-68      1   57   69   0.410   0.100        0
  4579  1447-71-365     1   57   69   0.410   0.100        0
  4580  1444-42-356    -2   58   70  -0.470  -0.310        0
  4581  1444-48-355    -2   58   70  -0.470  -0.310        0
  4582  1444-55-362    -2   58   70  -0.470  -0.310        0
  4583  1444-61-6      -2   58   70  -0.470  -0.310        0
  4584  1444-66-49     -2   58   70  -0.470  -0.310        0
  4585  1444-71-68     -2   58   70  -0.470  -0.310        0
  4586  1444-71-365    -2   58   70  -0.470  -0.310        0
  4587  1499-11-360    -2   56   72   0.300   0.160        0
  4588  1499-17-85     -2   56   72   0.300   0.160        0
  4589  1499-22-81     -2   56   72   0.300   0.160        0
  4590  1499-48-355    -2   56   72   0.300   0.160        0
  4591  1499-56-20     -2   56   72   0.300   0.160        0
  4592  1499-60-350    -2   56   72   0.300   0.160        0
  4593  1499-66-14     -2   56   72   0.300   0.160        0
  4594  1499-71-64     -2   56   72   0.300   0.160        0
  4595  1499-71-365    -2   56   72   0.300   0.160        0
  4596  1490-66-45      1   56   72   0.450   0.320        0
  4597  1490-71-64      1   56   72   0.450   0.320        0
  4598  1490-71-365     1   56   72   0.450   0.320        0
  4599  1436-71-64      2   57   71   0.220   0.120        0
  4600  1436-71-365     2   57   71   0.220   0.120        0
  4601  1488-17-87      2   57   74  -0.440   0.080        0
  4602  1488-22-81      2   57   74  -0.440   0.080        0
  4603  1488-48-350     2   57   74  -0.440   0.080        0
  4604  1488-56-20      2   57   74  -0.440   0.080        0
  4605  1502-17-85     -2   56   74   0.260  -0.350        0
  4606  1502-22-81     -2   56   74   0.260  -0.350        0
  4607  1502-48-365     2   56   74   0.260  -0.350        0
  4608  1502-56-20      2   56   74   0.260  -0.350        0
  4609  1502-60-350     2   56   74   0.260  -0.350        0
  4610  1502-66-46     -2   56   74   0.260  -0.350        0
  4611  1502-71-54     -2   56   74   0.260  -0.350        0
  4612  1502-71-365    -2   56   74   0.260  -0.350        0
  4613  1477-8-69       2   57   73  -0.240   0.100        0
  4614  1477-12-96      2   57   73  -0.240   0.100        0
  4615  1477-17-86      2   57   73  -0.240   0.100        0
  4616  1477-22-81      2   57   73  -0.240   0.100        0
  4617  1477-32-60      2   57   73  -0.240   0.100        0
  4618  1458-17-85      2   57   74   0.250  -0.410        0
  4619  1458-22-81      2   57   74   0.250  -0.410        0
  4620  1458-42-355     2   57   74   0.250  -0.410        0
  4621  1458-48-350     2   57   74   0.250  -0.410        0
  4622  1458-56-20      2   57   74   0.250  -0.410        0
  4623  1458-60-350     2   57   74   0.250  -0.410        0
  4624  1458-71-64      2   57   74   0.250  -0.410        0
  4625  1458-71-365     2   57   74   0.250  -0.410        0
  4626  1460-66-1       2   57   74   0.250  -0.440        0
  4627  1460-71-64      2   57   74   0.250  -0.440        0
  4628  1460-71-365     2   57   74   0.250  -0.440        0
  4629  1429-17-85     -2   58   74   0.100  -0.440        0
  4630  1429-22-81     -2   58   74   0.100  -0.440        0
  4631  1429-42-355    -2   58   74   0.100  -0.440        0
  4632  1429-48-350    -2   58   74   0.100  -0.440        0
  4633  1429-56-20     -2   58   74   0.100  -0.440        0
  4634  1429-60-350    -2   58   74   0.100  -0.440        0
  4635  1429-66-53     -2   58   74   0.100  -0.440        0
  4636  1429-71-13     -2   58   74   0.100  -0.440        0
  4637  1429-71-365    -2   58   74   0.100  -0.440        0
  4638  1431-17-85      2   58   75   0.130  -0.370        0
  4639  1431-22-82      2   58   75   0.130  -0.370        0
  4640  1431-27-63      2   58   75   0.130  -0.370        0
  4641  1431-32-60      2   58   75   0.130  -0.370        0
  4642  1431-42-355     2   58   75   0.130  -0.370        0
  4643  1431-48-350     2   58   75   0.130  -0.370        0
  4644  1431-56-20      2   58   75   0.130  -0.370        0
  4645  1431-60-350     2   58   75   0.130  -0.370        0
  4646  1431-71-13      2   58   75   0.130  -0.370        0
  4647  1431-71-365     2   58   75   0.130  -0.370        0
  4648  1392-16-363    -2   59   73   0.320  -0.060        0
  4649  1397-22-80     -2   59   68   0.290   0.090        0
  4650  1397-42-355    -2   59   68   0.290   0.090        0
  4651  1397-48-355    -2   59   68   0.290   0.090        0
  4652  1397-55-361    -2   59   68   0.290   0.090        0
  4653  1397-61-14     -2   59   68   0.290   0.090        0
  4654  1397-66-12     -2   59   68   0.290   0.090        0
  4655  1397-71-68     -2   59   68   0.290   0.090        0
  4656  1397-71-365    -2   59   68   0.290   0.090        0
  4657  1426-12-95     -2   58   66   0.290   0.470        0
  4658  1426-17-82     -2   58   66   0.290   0.470        0
  4659  1426-22-80     -2   58   66   0.290   0.470        0
  4660  1426-26-288    -2   58   66   0.290   0.470        0
  4661  1426-42-356    -2   58   66   0.290   0.470        0
  4662  1426-48-355    -2   58   66   0.290   0.470        0
  4663  1426-55-350    -2   58   66   0.290   0.470        0
  4664  1426-61-13     -2   58   66   0.290   0.470        0
  4665  1426-66-12     -2   58   66   0.290   0.470        0
  4666  1426-71-54     -2   58   66   0.290   0.470        0
  4667  1426-71-365    -2   58   66   0.290   0.470        0
  4668  1411-56-25      1   59   66  -0.250  -0.220        0
  4669  1411-61-42      1   59   66  -0.250  -0.220        0
  4670  1411-66-12      1   59   66  -0.250  -0.220        0
  4671  1411-71-54      1   59   66  -0.250  -0.220        0
  4672  1411-71-365     1   59   66  -0.250  -0.220        0
  4673  1409-61-42     -2   59   66  -0.130  -0.180        0
  4674  1409-66-12     -2   59   66  -0.130  -0.180        0
  4675  1409-71-54     -2   59   66  -0.130  -0.180        0
  4676  1409-71-365    -2   59   66  -0.130  -0.180        0
  4677  1390-71-68     -2   60   65  -0.440  -0.360        0
  4678  1390-71-362    -2   60   65  -0.440  -0.360        0
  4679  1416-71-1      -2   59   63  -0.320  -0.110        0
  4680  1372-66-5       1   60   65   0.210   0.130        0
  4681  1372-71-68      1   60   65   0.210   0.130        0
  4682  1372-71-362     1   60   65   0.210   0.130        0
  4683  1312-12-265     1   61   66   0.320   0.440        0
  4684  1332-71-13      2   61   68  -0.030  -0.260        0
  4685  1332-71-362     2   61   68  -0.030  -0.260        0
  4686  1359-32-69     -2   60   73   0.200  -0.410        0
  4687  1359-37-95     -2   60   73   0.200  -0.410        0
  4688  1359-42-356    -2   60   73   0.200  -0.410        0
  4689  1359-48-334    -2   60   73   0.200  -0.410        0
  4690  1359-56-19     -2   60   73   0.200  -0.410        0
  4691  1359-60-321    -2   60   73   0.200  -0.410        0
  4692  1359-65-298    -2   60   73   0.200  -0.410        0
  4693  1359-71-14     -2   60   73   0.200  -0.410        0
  4694  1359-71-365    -2   60   73   0.200  -0.410        0
  4695  1333-7-28      -2   61   73  -0.230  -0.450        0
  4696  1333-12-95     -2   61   73  -0.230  -0.450        0
  4697  1333-17-87     -2   61   73  -0.230  -0.450        0
  4698  1333-32-69     -2   61   73  -0.230  -0.450        0
  4699  1333-56-19      2   61   73  -0.230  -0.450        0
  4700  1333-61-60      2   61   73  -0.230  -0.450        0
  4701  1333-66-25      2   61   73  -0.230  -0.450        0
  4702  1355-32-69      2   61   75  -0.500  -0.490        0
  4703  1355-37-95      2   61   75  -0.500  -0.490        0
  4704  1355-42-356     2   61   75  -0.500  -0.490        0
  4705  1355-48-344     2   61   75  -0.500  -0.490        0
  4706  1355-56-19      2   61   75  -0.500  -0.490        0
  4707  1355-61-60      2   61   75  -0.500  -0.490        0
  4708  1355-66-25      2   61   75  -0.500  -0.490        0
  4709  1355-71-40      2   61   75  -0.500  -0.490        0
  4710  1295-32-69      1   62   73  -0.150  -0.020        0
  4711  1295-37-95      1   62   73  -0.150  -0.020        0
  4712  1295-42-355     1   62   73  -0.150  -0.020        0
  4713  1295-56-19      1   62   73  -0.150  -0.020        0
  4714  1295-61-60      1   62   73  -0.150  -0.020        0
  4715  1289-48-344     2   62   74  -0.230   0.280        0
  4716  1289-56-20      2   62   74  -0.230   0.280        0
  4717  1289-61-60      2   62   74  -0.230   0.280        0
  4718  1289-66-25      2   62   74  -0.230   0.280        0
  4719  1289-71-40      2   62   74  -0.230   0.280        0
  4720  1856-33-79      2   51   86   0.150   0.140        0
  4721  1866-42-356     2   51   87   0.150  -0.440        0
  4722  1866-48-348     2   51   87   0.150  -0.440        0
  4723  1866-55-347     2   51   87   0.150  -0.440        0
  4724  1866-60-356     2   51   87   0.150  -0.440        0
  4725  1866-66-5      -2   51   87   0.150  -0.440        0
  4726  1866-71-39     -2   51   87   0.150  -0.440        0
  4727  1866-71-41     -2   51   87   0.150  -0.440        0
  4728  1866-71-365    -2   51   87   0.150  -0.440        0
  4729  1859-55-347     2   51   87   0.110  -0.440        0
  4730  1859-66-33     -2   51   87   0.110  -0.440        0
  4731  1860-42-356     2   51   87   0.110  -0.440        0
  4732  1860-48-348     2   51   87   0.110  -0.440        0
  4733  1860-56-5       2   51   87   0.110  -0.440        0
  4734  1860-66-5       2   51   87   0.110  -0.440        0
  4735  1860-71-365     2   51   87   0.110  -0.440        0
  4736  1867-66-5       2   51   87   0.110  -0.470        0
  4737  1867-71-365     2   51   87   0.110  -0.470        0
  4738  1855-66-5       2   51   87   0.150  -0.440        0
  4739  1855-71-365     2   51   87   0.150  -0.440        0
  4740  1876-42-362     2   51   85  -0.040   0.290        0
  4741  1876-48-338     2   51   85  -0.040   0.290        0
  4742  1876-56-16      2   51   85  -0.040   0.290        0
  4743  1750-56-16      2   52   85  -0.120   0.490        0
  4744  1750-61-53      2   52   85  -0.120   0.490        0
  4745  1750-66-27      2   52   85  -0.120   0.490        0
  4746  1730-56-16      2   52   86   0.110  -0.410        0
  4747  1730-61-53      2   52   86   0.110  -0.410        0
  4748  1730-66-31      2   52   86   0.110  -0.410        0
  4749  1835-22-32      2   51   86   0.380   0.460        0
  4750  1835-27-12      2   51   86   0.380   0.460        0
  4751  1831-1-365      2   51   87   0.410  -0.440        0
  4752  1801-22-32      2   52   86  -0.390   0.200        0
  4753  1801-27-12      2   52   86  -0.390   0.200        0
  4754  1739-56-16      2   52   86  -0.050  -0.410        0
  4755  1739-61-53      2   52   86  -0.050  -0.410        0
  4756  1739-66-27      2   52   86  -0.050  -0.410        0
  4757  1725-66-12      2   52   83   0.190   0.080        0
  4758  1725-71-365     2   52   83   0.190   0.080        0
  4759  1761-27-17      2   52   85  -0.200  -0.420        0
  4760  1761-32-60      2   52   85  -0.200  -0.420        0
  4761  1761-42-355     2   52   85  -0.200  -0.420        0
  4762  1761-48-350     2   52   85  -0.200  -0.420        0
  4763  1761-56-6       2   52   85  -0.200  -0.420        0
  4764  1761-66-1       2   52   85  -0.200  -0.420        0
  4765  1761-71-35      2   52   85  -0.200  -0.420        0
  4766  1761-71-365     2   52   85  -0.200  -0.420        0
  4767  1774-48-365    -2   52   85  -0.240  -0.460        0
  4768  1774-56-5      -2   52   85  -0.240  -0.460        0
  4769  1774-66-1      -2   52   85  -0.240  -0.460        0
  4770  1774-71-35     -2   52   85  -0.240  -0.460        0
  4771  1774-71-365    -2   52   85  -0.240  -0.460        0
  4772  1740-1-365      1   52   84   0.030   0.380        0
  4773  1740-16-356     1   52   84   0.030   0.380        0
  4774  1853-42-357    -2   51   82   0.190   0.490        0
  4775  1850-48-338     2   51   82   0.190   0.230        0
  4776  1850-56-16      2   51   82   0.190   0.230        0
  4777  1850-66-31      2   51   82   0.190   0.230        0
  4778  1850-71-40      2   51   82   0.190   0.230        0
  4779  1895-16-362     2   51   81  -0.380  -0.300        0
  4780  1895-22-32      2   51   81  -0.380  -0.300        0
  4781  1895-27-12      2   51   81  -0.380  -0.300        0
  4782  1737-43-32      2   52   81   0.080   0.260        0
  4783  1737-48-355     2   52   81   0.080   0.260        0
  4784  1737-56-5       2   52   81   0.080   0.260        0
  4785  1737-61-26      2   52   81   0.080   0.260        0
  4786  1737-66-28      2   52   81   0.080   0.260        0
  4787  1737-71-35      2   52   81   0.080   0.260        0
  4788  1737-71-365     2   52   81   0.080   0.260        0
  4789  1802-1-276      1   52   82  -0.380  -0.030        0
  4790  1802-4-104      1   52   82  -0.380  -0.030        0
  4791  1746-42-355     2   52   82   0.150   0.110        0
  4792  1746-48-355     2   52   82   0.150   0.110        0
  4793  1746-56-11      2   52   82   0.150   0.110        0
  4794  1746-61-33      2   52   82   0.150   0.110        0
  4795  1746-66-28      2   52   82   0.150   0.110        0
  4796  1746-71-33      2   52   82   0.150   0.110        0
  4797  1746-71-344     2   52   82   0.150   0.110        0
  4798  1940-42-355    -2   50   80   0.280  -0.400        0
  4799  1940-48-355    -2   50   80   0.280  -0.400        0
  4800  1940-56-5      -2   50   80   0.280  -0.400        0
  4801  1940-66-1      -2   50   80   0.280  -0.400        0
  4802  1940-71-35     -2   50   80   0.280  -0.400        0
  4803  1940-71-365    -2   50   80   0.280  -0.400        0
  4804  1925-48-355     2   50   79   0.200   0.470        0
  4805  1925-56-5       2   50   79   0.200   0.470        0
  4806  1925-61-26      2   50   79   0.200   0.470        0
  4807  1925-66-32      2   50   79   0.200   0.470        0
  4808  1925-71-35      2   50   79   0.200   0.470        0
  4809  1925-71-365     2   50   79   0.200   0.470        0
  4810  1733-2-93       1   52   79   0.120  -0.280        0
  4811  1732-12-114     2   52   79   0.080  -0.020        0
  4812  1732-16-362     2   52   79   0.080  -0.020        0
  4813  1732-27-90      2   52   79   0.080  -0.020        0
  4814  1732-32-60      2   52   79   0.080  -0.020        0
  4815  1732-42-357     2   52   79   0.080  -0.020        0
  4816  1732-48-341     2   52   79   0.080  -0.020        0
  4817  1732-56-16      2   52   79   0.080  -0.020        0
  4818  1809-48-355     2   52   80  -0.420   0.480        0
  4819  1809-55-346     2   52   80  -0.420   0.480        0
  4820  1809-60-364     2   52   80  -0.420   0.480        0
  4821  1809-66-28      2   52   80  -0.420   0.480        0
  4822  1809-71-39      2   52   80  -0.420   0.480        0
  4823  1809-71-365     2   52   80  -0.420   0.480        0
  4824  1731-56-5       2   52   81   0.040  -0.460        0
  4825  1731-60-351     2   52   81   0.040  -0.460        0
  4826  1731-65-364     2   52   81   0.040  -0.460        0
  4827  1731-71-35      2   52   81   0.040  -0.460        0
  4828  1731-71-365     2   52   81   0.040  -0.460        0
  4829  1915-56-13      2   50   78   0.360   0.100        0
  4830  1915-60-351     2   50   78   0.360   0.100        0
  4831  1915-66-32      2   50   78   0.360   0.100        0
  4832  1915-71-55      2   50   78   0.360   0.100        0
  4833  1915-71-365     2   50   78   0.360   0.100        0
  4834  1869-1-365      1   51   78   0.090  -0.320        0
  4835  1884-1-52       1   51   78  -0.140   0.460        0
  4836  1910-66-32      2   50   77   0.440  -0.360        0
  4837  1910-71-365     2   50   77   0.440  -0.360        0
  4838  1887-66-32      2   51   77  -0.180  -0.360        0
  4839  1887-71-365     2   51   77  -0.180  -0.360        0
  4840  1854-66-48      2   51   77   0.200  -0.160        0
  4841  1885-7-322      1   51   77  -0.140   0.160        0
  4842  1885-12-116     1   51   77  -0.140   0.160        0
  4843  1790-66-48      2   52   78  -0.340  -0.420        0
  4844  1836-66-48      2   51   77   0.390  -0.390        0
  4845  1783-66-48      2   52   77  -0.300  -0.160        0
  4846  1846-48-355     2   52   78  -0.380   0.430        0
  4847  1846-55-327     2   52   78  -0.380   0.430        0
  4848  1846-61-14      2   52   78  -0.380   0.430        0
  4849  1846-66-48      2   52   78  -0.380   0.430        0
  4850  1846-71-365     2   52   78  -0.380   0.430        0
  4851  1845-48-355     2   51   78   0.320  -0.120        0
  4852  1845-55-360     2   51   78   0.320  -0.120        0
  4853  1845-61-11      2   51   78   0.320  -0.120        0
  4854  1845-66-32      2   51   78   0.320  -0.120        0
  4855  1845-71-365     2   51   78   0.320  -0.120        0
  4856  1916-56-5      -2   50   76   0.320   0.250        0
  4857  1916-66-32     -2   50   76   0.320   0.250        0
  4858  1916-71-365    -2   50   76   0.320   0.250        0
  4859  1911-56-5       2   50   76   0.360   0.250        0
  4860  1911-66-32      2   50   76   0.360   0.250        0
  4861  1911-71-365     2   50   76   0.360   0.250        0
  4862  1897-12-114     2   51   77  -0.410  -0.460        0
  4863  1897-27-10      2   51   77  -0.410  -0.460        0
  4864  1893-66-32      2   51   76  -0.330   0.310        0
  4865  1893-71-365     2   51   76  -0.330   0.310        0
  4866  1917-48-355     2   50   75   0.360  -0.150        0
  4867  1917-66-32      2   50   75   0.360  -0.150        0
  4868  1917-71-344     2   50   75   0.360  -0.150        0
  4869  1672-66-45      2   53   76  -0.300  -0.300        0
  4870  1647-12-332     2   53   76   0.350  -0.400        0
  4871  1647-16-355     2   53   76   0.350  -0.400        0
  4872  1659-22-81     -2   53   76   0.120   0.090        0
  4873  1659-42-356    -2   53   76   0.120   0.090        0
  4874  1659-48-355     2   53   76   0.120   0.090        0
  4875  1659-56-6       2   53   76   0.120   0.090        0
  4876  1659-60-354     2   53   76   0.120   0.090        0
  4877  1659-66-45     -2   53   76   0.120   0.090        0
  4878  1659-71-365    -2   53   76   0.120   0.090        0
  4879  1682-48-355     2   52   75   0.430   0.080        0
  4880  1707-42-355     2   52   75   0.430   0.080        0
  4881  1707-48-355     2   52   75   0.430   0.080        0
  4882  1707-56-26      2   52   75   0.430   0.080        0
  4883  1707-60-354     2   52   75   0.430   0.080        0
  4884  1707-66-45      2   52   75   0.430   0.080        0
  4885  1707-71-365     2   52   75   0.430   0.080        0
  4886  1712-42-355     2   52   75   0.350  -0.080        0
  4887  1712-48-355     2   52   75   0.350  -0.080        0
  4888  1712-56-5       2   52   75   0.350  -0.080        0
  4889  1712-61-14      2   52   75   0.350  -0.080        0
  4890  1712-65-355     2   52   75   0.350  -0.080        0
  4891  1712-71-67      2   52   75   0.350  -0.080        0
  4892  1712-71-365     2   52   75   0.350  -0.080        0
  4893  1671-22-79     -2   53   75  -0.070   0.280        0
  4894  1671-42-355     2   53   75  -0.070   0.280        0
  4895  1671-48-355     2   53   75  -0.070   0.280        0
  4896  1671-56-20      2   53   75  -0.070   0.280        0
  4897  1627-22-82      2   54   76  -0.460  -0.100        0
  4898  1627-32-90      2   54   76  -0.460  -0.100        0
  4899  1627-37-90      2   54   76  -0.460  -0.100        0
  4900  1627-42-356     2   54   76  -0.460  -0.100        0
  4901  1627-48-350     2   54   76  -0.460  -0.100        0
  4902  1627-55-360     2   54   76  -0.460  -0.100        0
  4903  1627-61-12      2   54   76  -0.460  -0.100        0
  4904  1627-66-1       2   54   76  -0.460  -0.100        0
  4905  1627-71-53      2   54   76  -0.460  -0.100        0
  4906  1627-71-365     2   54   76  -0.460  -0.100        0
  4907  1607-1-276     -2   54   76  -0.120  -0.300        0
  4908  1607-6-269     -2   54   76  -0.120  -0.300        0
  4909  1607-11-269    -2   54   76  -0.120  -0.300        0
  4910  1598-66-45      2   54   76   0.150   0.030        0
  4911  1643-27-90     -2   53   78   0.190   0.370        0
  4912  1632-22-82      2   53   77   0.500   0.070        0
  4913  1632-27-15      2   53   77   0.500   0.070        0
  4914  1632-32-77      2   53   77   0.500   0.070        0
  4915  1632-42-356     2   53   77   0.500   0.070        0
  4916  1632-48-355     2   53   77   0.500   0.070        0
  4917  1632-56-6       2   53   77   0.500   0.070        0
  4918  1632-60-354     2   53   77   0.500   0.070        0
  4919  1632-66-48      2   53   77   0.500   0.070        0
  4920  1632-71-53      2   53   77   0.500   0.070        0
  4921  1632-71-365     2   53   77   0.500   0.070        0
  4922  1677-32-64      2   53   81  -0.080  -0.450        0
  4923  1677-42-355     2   53   81  -0.080  -0.450        0
  4924  1677-48-351     2   53   81  -0.080  -0.450        0
  4925  1677-56-5       2   53   81  -0.080  -0.450        0
  4926  1677-61-26      2   53   81  -0.080  -0.450        0
  4927  1677-66-39      2   53   81  -0.080  -0.450        0
  4928  1677-71-35      2   53   81  -0.080  -0.450        0
  4929  1677-71-365     2   53   81  -0.080  -0.450        0
  4930  1646-27-90      2   53   80   0.070  -0.430        0
  4931  1646-32-64      2   53   80   0.070  -0.430        0
  4932  1646-42-355     2   53   80   0.070  -0.430        0
  4933  1646-48-350     2   53   80   0.070  -0.430        0
  4934  1646-56-5       2   53   80   0.070  -0.430        0
  4935  1646-61-26      2   53   80   0.070  -0.430        0
  4936  1646-66-39      2   53   80   0.070  -0.430        0
  4937  1646-71-39      2   53   80   0.070  -0.430        0
  4938  1646-71-365     2   53   80   0.070  -0.430        0
  4939  1602-42-355     2   54   80  -0.010  -0.270        0
  4940  1602-48-350     2   54   80  -0.010  -0.270        0
  4941  1602-71-35      2   54   80  -0.010  -0.270        0
  4942  1602-71-365     2   54   80  -0.010  -0.270        0
  4943  1601-42-355    -2   54   80  -0.010  -0.230        0
  4944  1601-48-350    -2   54   80  -0.010  -0.230        0
  4945  1601-55-348    -2   54   80  -0.010  -0.230        0
  4946  1601-61-14     -2   54   80  -0.010  -0.230        0
  4947  1601-66-19     -2   54   80  -0.010  -0.230        0
  4948  1601-71-35     -2   54   80  -0.010  -0.230        0
  4949  1601-71-365     2   54   80  -0.010  -0.230        0
  4950  1674-10-253     2   53   82  -0.280   0.140        0
  4951  1676-42-355     2   53   82  -0.240   0.140        0
  4952  1676-48-350     2   53   82  -0.240   0.140        0
  4953  1676-55-349     2   53   82  -0.240   0.140        0
  4954  1676-61-27      2   53   82  -0.240   0.140        0
  4955  1676-66-19      2   53   82  -0.240   0.140        0
  4956  1676-71-35      2   53   82  -0.240   0.140        0
  4957  1676-71-365     2   53   82  -0.240   0.140        0
  4958  1645-32-77      2   53   81   0.190   0.420        0
  4959  1645-42-355     2   53   81   0.190   0.420        0
  4960  1645-55-360     2   53   81   0.190   0.420        0
  4961  1645-60-356     2   53   81   0.190   0.420        0
  4962  1645-66-1       2   53   81   0.190   0.420        0
  4963  1645-71-35      2   53   81   0.190   0.420        0
  4964  1645-71-365     2   53   81   0.190   0.420        0
  4965  1604-32-77      2   54   81  -0.010  -0.320        0
  4966  1604-42-355     2   54   81  -0.010  -0.320        0
  4967  1604-48-350     2   54   81  -0.010  -0.320        0
  4968  1604-55-360     2   54   81  -0.010  -0.320        0
  4969  1604-60-362     2   54   81  -0.010  -0.320        0
  4970  1604-71-48      2   54   81  -0.010  -0.320        0
  4971  1604-71-365     2   54   81  -0.010  -0.320        0
  4972  1640-55-360    -2   53   84   0.220   0.380        0
  4973  1640-60-356    -2   53   84   0.220   0.380        0
  4974  1640-66-19     -2   53   84   0.220   0.380        0
  4975  1640-71-22     -2   53   84   0.220   0.380        0
  4976  1640-71-365    -2   53   84   0.220   0.380        0
  4977  1720-66-5       2   52   86   0.260   0.270        0
  4978  1720-71-22      2   52   86   0.260   0.270        0
  4979  1720-71-365     2   52   86   0.260   0.270        0
  4980  1706-33-318     2   52   85   0.340   0.260        0
  4981  1669-7-32       2   53   85  -0.200  -0.230        0
  4982  1669-12-106     2   53   85  -0.200  -0.230        0
  4983  1669-32-68      2   53   85  -0.200  -0.230        0
  4984  1669-38-60      2   53   85  -0.200  -0.230        0
  4985  1669-42-354     2   53   85  -0.200  -0.230        0
  4986  1622-32-68      2   54   85  -0.400  -0.090        0
  4987  1622-38-60      2   54   85  -0.400  -0.090        0
  4988  1622-42-354     2   54   85  -0.400  -0.090        0
  4989  1622-48-341     2   54   85  -0.400  -0.090        0
  4990  1622-56-17      2   54   85  -0.400  -0.090        0
  4991  1622-61-54      2   54   85  -0.400  -0.090        0
  4992  1622-66-32      2   54   85  -0.400  -0.090        0
  4993  1556-61-27     -2   55   86  -0.100   0.050        0
  4994  1556-66-5      -2   55   86  -0.100   0.050        0
  4995  1556-71-22     -2   55   86  -0.100   0.050        0
  4996  1556-71-365    -2   55   86  -0.100   0.050        0
  4997  1553-7-336      2   55   84  -0.060  -0.230        0
  4998  1553-12-106     2   55   84  -0.060  -0.230        0
  4999  1553-42-354     2   55   84  -0.060  -0.230        0
  5000  1553-48-341     2   55   84  -0.060  -0.230        0
  5001  1568-33-234     2   55   84  -0.100  -0.260        0
  5002  1568-48-341     2   55   84  -0.100  -0.260        0
  5003  1594-71-22      2   54   83   0.290   0.090        0
  5004  1594-71-365     2   54   83   0.290   0.090        0
  5005  1563-32-68      2   55   83  -0.290  -0.170        0
  5006  1563-37-48      2   55   83  -0.290  -0.170        0
  5007  1563-42-355     2   55   83  -0.290  -0.170        0
  5008  1563-48-348     2   55   83  -0.290  -0.170        0
  5009  1563-56-6       2   55   83  -0.290  -0.170        0
  5010  1553-15-99      2   55   84  -0.060  -0.230        0
  5011  1522-42-355     2   55   84   0.480   0.160        0
  5012  1522-48-348     2   55   84   0.480   0.160        0
  5013  1527-55-354    -2   56   84  -0.490   0.190        0
  5014  1527-61-54     -2   56   84  -0.490   0.190        0
  5015  1527-66-32     -2   56   84  -0.490   0.190        0
  5016  1527-71-22     -2   56   84  -0.490   0.190        0
  5017  1527-71-365     2   56   84  -0.490   0.190        0
  5018  1589-42-355     2   54   82   0.480   0.470        0
  5019  1589-48-350     2   54   82   0.480   0.470        0
  5020  1589-55-360     2   54   82   0.480   0.470        0
  5021  1589-61-14      2   54   82   0.480   0.470        0
  5022  1589-66-32      2   54   82   0.480   0.470        0
  5023  1589-71-22      2   54   82   0.480   0.470        0
  5024  1589-71-365     2   54   82   0.480   0.470        0
  5025  1586-32-68      2   54   81   0.490   0.170        0
  5026  1586-48-356     2   54   81   0.490   0.170        0
  5027  1586-56-6       2   54   81   0.490   0.170        0
  5028  1586-60-356     2   54   81   0.490   0.170        0
  5029  1586-66-1       2   54   81   0.490   0.170        0
  5030  1586-71-35      2   54   81   0.490   0.170        0
  5031  1586-71-365     2   54   81   0.490   0.170        0
  5032  1532-42-355     2   55   81   0.180   0.330        0
  5033  1532-48-348     2   55   81   0.180   0.330        0
  5034  1532-55-354     2   55   81   0.180   0.330        0
  5035  1532-61-28      2   55   81   0.180   0.330        0
  5036  1532-66-46      2   55   81   0.180   0.330        0
  5037  1532-71-22      2   55   81   0.180   0.330        0
  5038  1532-71-365     2   55   81   0.180   0.330        0
  5039  1534-42-355     2   55   81   0.440  -0.350        0
  5040  1534-48-348     2   55   81   0.440  -0.350        0
  5041  1534-55-360     2   55   81   0.440  -0.350        0
  5042  1534-61-5       2   55   81   0.440  -0.350        0
  5043  1534-66-46      2   55   81   0.440  -0.350        0
  5044  1534-71-35      2   55   81   0.440  -0.350        0
  5045  1534-71-365     2   55   81   0.440  -0.350        0
  5046  1524-42-355     2   55   82   0.480   0.440        0
  5047  1524-48-348     2   55   82   0.480   0.440        0
  5048  1524-56-6       2   55   82   0.480   0.440        0
  5049  1524-60-356     2   55   82   0.480   0.440        0
  5050  1524-66-1       2   55   82   0.480   0.440        0
  5051  1524-71-48      2   55   82   0.480   0.440        0
  5052  1524-71-365     2   55   82   0.480   0.440        0
  5053  1561-21-340     2   55   80  -0.170  -0.070        0
  5054  1561-32-64      2   55   80  -0.170  -0.070        0
  5055  1561-42-355     2   55   80  -0.170  -0.070        0
  5056  1561-48-350     2   55   80  -0.170  -0.070        0
  5057  1561-55-360     2   55   80  -0.170  -0.070        0
  5058  1561-61-26      2   55   80  -0.170  -0.070        0
  5059  1561-66-46      2   55   80  -0.170  -0.070        0
  5060  1561-71-39      2   55   80  -0.170  -0.070        0
  5061  1561-71-365     2   55   80  -0.170  -0.070        0
  5062  1571-2-94       1   55   79  -0.360   0.250        0
  5063  1572-48-356     2   55   79  -0.390  -0.140        0
  5064  1572-56-6       2   55   79  -0.390  -0.140        0
  5065  1572-61-26      2   55   79  -0.390  -0.140        0
  5066  1572-66-12      2   55   79  -0.390  -0.140        0
  5067  1572-71-48      2   55   79  -0.390  -0.140        0
  5068  1572-71-365     2   55   79  -0.390  -0.140        0
  5069  1549-21-319     2   55   80  -0.050  -0.430        0
  5070  1549-56-6       2   55   80  -0.050  -0.430        0
  5071  1549-60-356     2   55   80  -0.050  -0.430        0
  5072  1549-65-350     2   55   80  -0.050  -0.430        0
  5073  1549-71-67      2   55   80  -0.050  -0.430        0
  5074  1549-71-365     2   55   80  -0.050  -0.430        0
  5075  1547-27-62      2   55   79   0.180   0.150        0
  5076  1521-42-355     2   56   79  -0.210   0.150        0
  5077  1521-48-350     2   56   79  -0.210   0.150        0
  5078  1521-55-360     2   56   79  -0.210   0.150        0
  5079  1521-60-356     2   56   79  -0.210   0.150        0
  5080  1521-66-46      2   56   79  -0.210   0.150        0
  5081  1521-71-48      2   56   79  -0.210   0.150        0
  5082  1521-71-365     2   56   79  -0.210   0.150        0
  5083  1573-48-356     2   55   77  -0.320   0.230        0
  5084  1573-55-360     2   55   77  -0.320   0.230        0
  5085  1573-60-357     2   55   77  -0.320   0.230        0
  5086  1573-66-54      2   55   77  -0.320   0.230        0
  5087  1573-71-19      2   55   77  -0.320   0.230        0
  5088  1573-71-365     2   55   77  -0.320   0.230        0
  5089  1545-32-77     -2   55   77   0.140   0.200        0
  5090  1545-42-356     2   55   77   0.140   0.200        0
  5091  1545-48-350     2   55   77   0.140   0.200        0
  5092  1545-56-11      2   55   77   0.140   0.200        0
  5093  1545-61-14      2   55   77   0.140   0.200        0
  5094  1545-66-54      2   55   77   0.140   0.200        0
  5095  1545-71-19      2   55   77   0.140   0.200        0
  5096  1545-71-365     2   55   77   0.140   0.200        0
  5097  1535-42-356     2   55   78   0.330  -0.440        0
  5098  1535-48-350     2   55   78   0.330  -0.440        0
  5099  1535-56-11      2   55   78   0.330  -0.440        0
  5100  1535-60-357     2   55   78   0.330  -0.440        0
  5101  1535-66-47      2   55   78   0.330  -0.440        0
  5102  1535-71-19      2   55   78   0.330  -0.440        0
  5103  1535-71-365     2   55   78   0.330  -0.440        0
  5104  1507-42-356     2   56   77   0.100   0.070        0
  5105  1507-48-350     2   56   77   0.100   0.070        0
  5106  1507-56-11      2   56   77   0.100   0.070        0
  5107  1507-60-357     2   56   77   0.100   0.070        0
  5108  1507-66-54      2   56   77   0.100   0.070        0
  5109  1507-71-19      2   56   77   0.100   0.070        0
  5110  1507-71-365     2   56   77   0.100   0.070        0
  5111  1523-16-54     -2   56   77  -0.360   0.200        0
  5112  1575-22-81      2   55   76  -0.430   0.350        0
  5113  1575-32-77      2   55   76  -0.430   0.350        0
  5114  1575-42-356     2   55   76  -0.430   0.350        0
  5115  1575-48-350     2   55   76  -0.430   0.350        0
  5116  1575-55-343     2   55   76  -0.430   0.350        0
  5117  1575-61-11      2   55   76  -0.430   0.350        0
  5118  1575-71-365     2   55   76  -0.430   0.350        0
  5119  1577-22-81     -2   55   75  -0.470   0.310        0
  5120  1580-42-355     2   55   75  -0.470   0.310        0
  5121  1580-48-355     2   55   75  -0.470   0.310        0
  5122  1580-56-13      2   55   75  -0.470   0.310        0
  5123  1580-61-12      2   55   75  -0.470   0.310        0
  5124  1580-66-54      2   55   75  -0.470   0.310        0
  5125  1580-71-365     2   55   75  -0.470   0.310        0
  5126  1536-17-79      2   55   75   0.220  -0.080        0
  5127  1536-22-82      2   55   75   0.220  -0.080        0
  5128  1536-32-77      2   55   75   0.220  -0.080        0
  5129  1536-42-356     2   55   75   0.220  -0.080        0
  5130  1536-48-350     2   55   75   0.220  -0.080        0
  5131  1536-55-340     2   55   75   0.220  -0.080        0
  5132  1536-66-54      2   55   75   0.220  -0.080        0
  5133  1536-71-365     2   55   75   0.220  -0.080        0
  5134  1516-42-356     2   56   76  -0.200  -0.430        0
  5135  1516-48-350     2   56   76  -0.200  -0.430        0
  5136  1516-56-11      2   56   76  -0.200  -0.430        0
  5137  1516-61-27      2   56   76  -0.200  -0.430        0
  5138  1516-66-54      2   56   76  -0.200  -0.430        0
  5139  1516-71-365     2   56   76  -0.200  -0.430        0
  5140  1528-22-82      2   55   76   0.380   0.060        0
  5141  1528-27-63      2   55   76   0.380   0.060        0
  5142  1528-32-77      2   55   76   0.380   0.060        0
  5143  1528-65-350     2   55   76   0.380   0.060        0
  5144  1528-71-365     2   55   76   0.380   0.060        0
  5145  1514-42-356     2   56   76  -0.090   0.320        0
  5146  1514-48-350     2   56   76  -0.090   0.320        0
  5147  1514-55-340     2   56   76  -0.090   0.320        0
  5148  1514-61-27      2   56   76  -0.090   0.320        0
  5149  1514-66-54      2   56   76  -0.090   0.320        0
  5150  1514-71-48      2   56   76  -0.090   0.320        0
  5151  1514-71-365     2   56   76  -0.090   0.320        0
  5152  1495-42-356     2   56   77   0.410   0.170        0
  5153  1495-48-350     2   56   77   0.410   0.170        0
  5154  1495-55-343     2   56   77   0.410   0.170        0
  5155  1495-61-41      2   56   77   0.410   0.170        0
  5156  1495-66-54      2   56   77   0.410   0.170        0
  5157  1495-71-19      2   56   77   0.410   0.170        0
  5158  1495-71-365     2   56   77   0.410   0.170        0
  5159  1484-37-343     2   57   77  -0.320  -0.250        0
  5160  1484-42-356     2   57   77  -0.320  -0.250        0
  5161  1484-56-11      2   57   77  -0.320  -0.250        0
  5162  1484-60-357     2   57   77  -0.320  -0.250        0
  5163  1484-66-53      2   57   77  -0.320  -0.250        0
  5164  1484-71-19      2   57   77  -0.320  -0.250        0
  5165  1484-71-365     2   57   77  -0.320  -0.250        0
  5166  1463-56-34      1   57   77   0.100  -0.290        0
  5167  1463-60-357     1   57   77   0.100  -0.290        0
  5168  1463-66-53      1   57   77   0.100  -0.290        0
  5169  1463-71-19      1   57   77   0.100  -0.290        0
  5170  1463-71-365     1   57   77   0.100  -0.290        0
  5171  1483-42-355     2   57   80  -0.220   0.230        0
  5172  1483-48-348     2   57   80  -0.220   0.230        0
  5173  1483-56-6       2   57   80  -0.220   0.230        0
  5174  1483-60-357     2   57   80  -0.220   0.230        0
  5175  1483-66-46      2   57   80  -0.220   0.230        0
  5176  1483-71-35      2   57   80  -0.220   0.230        0
  5177  1483-71-365     2   57   80  -0.220   0.230        0
  5178  1437-16-300    -2   58   80  -0.260  -0.450        0
  5179  1437-22-32     -2   58   80  -0.260  -0.450        0
  5180  1437-27-12     -2   58   80  -0.260  -0.450        0
  5181  1438-42-362     2   58   79  -0.330   0.090        0
  5182  1438-56-20      2   58   79  -0.330   0.090        0
  5183  1438-61-53      2   58   79  -0.330   0.090        0
  5184  1438-66-32      2   58   79  -0.330   0.090        0
  5185  1438-71-40      2   58   79  -0.330   0.090        0
  5186  1445-27-76      2   57   81   0.470  -0.410        0
  5187  1445-32-55      2   57   81   0.470  -0.410        0
  5188  1445-42-356     2   57   81   0.470  -0.410        0
  5189  1445-48-348     2   57   81   0.470  -0.410        0
  5190  1445-55-360     2   57   81   0.470  -0.410        0
  5191  1445-60-357     2   57   81   0.470  -0.410        0
  5192  1445-66-1       2   57   81   0.470  -0.410        0
  5193  1445-71-35      2   57   81   0.470  -0.410        0
  5194  1445-71-365     2   57   81   0.470  -0.410        0
  5195  1489-32-63      2   57   82  -0.410  -0.370        0
  5196  1489-42-355     2   57   82  -0.410  -0.370        0
  5197  1489-48-348     2   57   82  -0.410  -0.370        0
  5198  1489-55-353     2   57   82  -0.410  -0.370        0
  5199  1489-61-28      2   57   82  -0.410  -0.370        0
  5200  1489-66-39      2   57   82  -0.410  -0.370        0
  5201  1489-71-22      2   57   82  -0.410  -0.370        0
  5202  1489-71-365     2   57   82  -0.410  -0.370        0
  5203  1469-42-355     2   57   82   0.090   0.410        0
  5204  1469-48-348     2   57   82   0.090   0.410        0
  5205  1469-55-357     2   57   82   0.090   0.410        0
  5206  1469-61-54      2   57   82   0.090   0.410        0
  5207  1494-66-46      2   56   83   0.360  -0.460        0
  5208  1469-71-71      2   57   82   0.090   0.410        0
  5209  1469-71-365     2   57   82   0.090   0.410        0
  5210  1464-12-102     2   57   83   0.010  -0.170        0
  5211  1464-32-63      2   57   83   0.010  -0.170        0
  5212  1464-42-354     2   57   83   0.010  -0.170        0
  5213  1439-37-90      2   58   83  -0.380  -0.300        0
  5214  1439-42-355     2   58   83  -0.380  -0.300        0
  5215  1439-48-348     2   58   83  -0.380  -0.300        0
  5216  1439-56-6       2   58   83  -0.380  -0.300        0
  5217  1439-61-28      2   58   83  -0.380  -0.300        0
  5218  1439-66-46      2   58   83  -0.380  -0.300        0
  5219  1439-71-71      2   58   83  -0.380  -0.300        0
  5220  1439-71-365     2   58   83  -0.380  -0.300        0
  5221  1435-42-355     2   58   83  -0.150   0.000        0
  5222  1435-48-348     2   58   83  -0.150   0.000        0
  5223  1435-55-361     2   58   83  -0.150   0.000        0
  5224  1435-61-11      2   58   83  -0.150   0.000        0
  5225  1435-66-49      2   58   83  -0.150   0.000        0
  5226  1435-71-71      2   58   83  -0.150   0.000        0
  5227  1435-71-365     2   58   83  -0.150   0.000        0
  5228  1449-37-30     -2   57   85   0.350  -0.050        0
  5229  1414-7-138      2   59   85  -0.470   0.210        0
  5230  1414-32-64      2   59   85  -0.470   0.210        0
  5231  1414-38-60      2   59   85  -0.470   0.210        0
  5232  1414-42-354     2   59   85  -0.470   0.210        0
  5233  1379-71-356     2   60   85  -0.130  -0.310        0
  5234  1425-2-94       2   58   84   0.380   0.040        0
  5235  1425-16-359     2   58   84   0.380   0.040        0
  5236  1425-22-32      2   58   84   0.380   0.040        0
  5237  1425-27-12      2   58   84   0.380   0.040        0
  5238  1382-42-355     2   60   83  -0.350  -0.330        0
  5239  1382-48-348     2   60   83  -0.350  -0.330        0
  5240  1382-56-6       2   60   83  -0.350  -0.330        0
  5241  1382-61-54      2   60   83  -0.350  -0.330        0
  5242  1382-66-46      2   60   83  -0.350  -0.330        0
  5243  1382-71-22      2   60   83  -0.350  -0.330        0
  5244  1382-71-365     2   60   83  -0.350  -0.330        0
  5245  1413-32-64     -2   59   80  -0.220  -0.390        0
  5246  1413-37-48     -2   59   80  -0.220  -0.390        0
  5247  1413-56-6       2   59   80  -0.220  -0.390        0
  5248  1413-61-26      2   59   80  -0.220  -0.390        0
  5249  1413-66-53      2   59   80  -0.220  -0.390        0
  5250  1413-71-48      2   59   80  -0.220  -0.390        0
  5251  1395-32-64      2   59   79   0.390   0.000        0
  5252  1395-42-355     2   59   79   0.390   0.000        0
  5253  1395-48-348     2   59   79   0.390   0.000        0
  5254  1395-56-6       2   59   79   0.390   0.000        0
  5255  1395-61-26      2   59   79   0.390   0.000        0
  5256  1395-66-1       2   59   79   0.390   0.000        0
  5257  1395-71-48      2   59   79   0.390   0.000        0
  5258  1395-71-365     2   59   79   0.390   0.000        0
  5259  1377-35-16      2   60   79   0.080  -0.260        0
  5260  1377-42-355     2   60   79   0.080  -0.260        0
  5261  1377-48-348     2   60   79   0.080  -0.260        0
  5262  1377-56-6       2   60   79   0.080  -0.260        0
  5263  1377-61-26      2   60   79   0.080  -0.260        0
  5264  1377-66-53      2   60   79   0.080  -0.260        0
  5265  1377-71-365     2   60   79   0.080  -0.260        0
  5266  1394-42-355     2   59   80   0.270   0.490        0
  5267  1394-48-348     2   59   80   0.270   0.490        0
  5268  1394-56-6       2   59   80   0.270   0.490        0
  5269  1394-61-26      2   59   80   0.270   0.490        0
  5270  1394-66-53      2   59   80   0.270   0.490        0
  5271  1394-71-365     2   59   80   0.270   0.490        0
  5272  1375-32-64      2   60   81   0.150  -0.470        0
  5273  1375-42-355     2   60   81   0.150  -0.470        0
  5274  1375-48-348     2   60   81   0.150  -0.470        0
  5275  1375-56-6       2   60   81   0.150  -0.470        0
  5276  1375-61-26      2   60   81   0.150  -0.470        0
  5277  1375-66-53      2   60   81   0.150  -0.470        0
  5278  1375-71-365     2   60   81   0.150  -0.470        0
  5279  1396-17-90      2   59   77   0.280  -0.350        0
  5280  1396-22-81      2   59   77   0.280  -0.350        0
  5281  1396-32-63      2   59   77   0.280  -0.350        0
  5282  1396-42-355     2   59   77   0.280  -0.350        0
  5283  1396-48-350     2   59   77   0.280  -0.350        0
  5284  1396-56-11      2   59   77   0.280  -0.350        0
  5285  1396-61-26      2   59   77   0.280  -0.350        0
  5286  1396-66-53      2   59   77   0.280  -0.350        0
  5287  1396-71-365     2   59   77   0.280  -0.350        0
  5288  1415-22-82      1   59   76  -0.450  -0.160        0
  5289  1415-32-63      1   59   76  -0.450  -0.160        0
  5290  1415-37-90      2   59   76  -0.450  -0.160        0
  5291  1415-42-355     2   59   76  -0.450  -0.160        0
  5292  1415-48-350     2   59   76  -0.450  -0.160        0
  5293  1415-56-11      2   59   76  -0.450  -0.160        0
  5294  1415-61-27      2   59   76  -0.450  -0.160        0
  5295  1415-66-49      2   59   76  -0.450  -0.160        0
  5296  1415-71-365     2   59   76  -0.450  -0.160        0
  5297  1323-2-88       2   61   78   0.110  -0.210        0
  5298  1368-17-85     -2   60   77   0.310  -0.350        0
  5299  1368-22-81     -2   60   77   0.310  -0.350        0
  5300  1368-27-15      2   60   77   0.310  -0.350        0
  5301  1368-42-355     2   60   77   0.310  -0.350        0
  5302  1368-55-339     2   60   77   0.310  -0.350        0
  5303  1368-66-49     -2   60   77   0.310  -0.350        0
  5304  1368-71-365    -2   60   77   0.310  -0.350        0
  5305  1327-71-365     2   61   80   0.030   0.110        0
  5306  1369-71-365     2   60   79   0.270   0.490        0
  5307  1326-71-365     2   61   79   0.070   0.390        0
  5308  1302-71-365     2   62   80  -0.430  -0.380        0
  5309  1269-37-48      2   62   83   0.140  -0.420        0
  5310  1269-66-1       2   62   83   0.140  -0.420        0
  5311  1269-71-365     2   62   83   0.140  -0.420        0
  5312  1277-66-59      2   62   83   0.100  -0.420        0
  5313  1330-48-345     2   61   83  -0.010  -0.060        0
  5314  1330-56-17      2   61   83  -0.010  -0.060        0
  5315  1322-2-94       2   61   83   0.100  -0.190        0
  5316  1331-48-345     2   61   83  -0.130   0.290        0
  5317  1331-56-17      2   61   83  -0.130   0.290        0
  5318  1331-61-54      2   61   83  -0.130   0.290        0
  5319  1331-66-32      2   61   83  -0.130   0.290        0
  5320  1331-71-40      2   61   83  -0.130   0.290        0
  5321  1276-12-99      2   62   84   0.130   0.470        0
  5322  1276-17-90      2   62   84   0.130   0.470        0
  5323  1771-33-65      3   52   91  -0.250   0.150        0
  5324  1880-42-356     3   52   91  -0.140  -0.180        0
  5325  1880-48-335     3   52   91  -0.140  -0.180        0
  5326  1880-61-60      3   52   91  -0.140  -0.180        0
  5327  1880-66-25      3   52   91  -0.140  -0.180        0
  5328  1735-34-152     3   52   91   0.050  -0.020        0
  5329  1840-16-362     2   51   89   0.330   0.260        0
  5330  1794-3-36       1   51   91   0.400  -0.440        0
  5331  1794-16-362     1   51   91   0.400  -0.440        0
  5332  1794-27-12      1   51   91   0.400  -0.440        0
  5333  1794-71-39      1   51   91   0.400  -0.440        0
  5334  1794-71-365     1   51   91   0.400  -0.440        0
  5335  1796-16-362     3   52   90  -0.400  -0.190        0
  5336  1806-55-348     3   52   90  -0.440   0.140        0
  5337  1806-60-364     3   52   90  -0.440   0.140        0
  5338  1806-66-1       3   52   90  -0.440   0.140        0
  5339  1806-71-39      3   52   90  -0.440   0.140        0
  5340  1806-71-365     3   52   90  -0.440   0.140        0
  5341  1788-55-348     2   52   90  -0.360   0.140        0
  5342  1788-60-364     2   52   90  -0.360   0.140        0
  5343  1788-66-21      2   52   90  -0.360   0.140        0
  5344  1788-71-39      2   52   90  -0.360   0.140        0
  5345  1788-71-365     2   52   90  -0.360   0.140        0
  5346  1782-42-355     3   52   90  -0.330   0.140        0
  5347  1782-48-348     3   52   90  -0.330   0.140        0
  5348  1782-55-348     3   52   90  -0.330   0.140        0
  5349  1782-60-364     3   52   90  -0.330   0.140        0
  5350  1782-66-28      3   52   90  -0.330   0.140        0
  5351  1782-71-39      2   52   90  -0.330   0.140        0
  5352  1782-71-365     2   52   90  -0.330   0.140        0
  5353  1807-66-28      2   52   90  -0.440   0.140        0
  5354  1807-71-39      2   52   90  -0.440   0.140        0
  5355  1807-71-365     2   52   90  -0.440   0.140        0
  5356  1896-55-348     2   51   87  -0.430   0.400        0
  5357  1881-71-39      2   51   88  -0.200  -0.370        0
  5358  1881-71-365     2   51   88  -0.200  -0.370        0
  5359  1841-1-357      2   51   87   0.340  -0.210        0
  5360  1773-34-91      2   52   87  -0.240   0.410        0
  5361  1821-48-302     2   51   88   0.490   0.280        0
  5362  1798-16-362     2   52   88  -0.400   0.280        0
  5363  1797-48-348     2   52   89  -0.400  -0.390        0
  5364  1797-55-348     2   52   89  -0.400  -0.390        0
  5365  1797-60-354     2   52   89  -0.400  -0.390        0
  5366  1797-66-28      2   52   89  -0.400  -0.390        0
  5367  1797-71-39      2   52   89  -0.400  -0.390        0
  5368  1797-71-365     2   52   89  -0.400  -0.390        0
  5369  1789-42-356     2   52   89  -0.360  -0.390        0
  5370  1789-55-348     2   52   89  -0.360  -0.390        0
  5371  1789-60-364     2   52   89  -0.360  -0.390        0
  5372  1789-66-28      2   52   89  -0.360  -0.390        0
  5373  1789-71-39      2   52   89  -0.360  -0.390        0
  5374  1789-71-365     2   52   89  -0.360  -0.390        0
  5375  1780-66-28      2   52   89  -0.400  -0.390        0
  5376  1780-71-39      2   52   89  -0.400  -0.390        0
  5377  1780-71-365     2   52   89  -0.400  -0.390        0
  5378  1799-42-356     2   52   88  -0.400  -0.270        0
  5379  1799-48-335     2   52   88  -0.400  -0.270        0
  5380  1736-34-152     2   52   88   0.060  -0.170        0
  5381  1613-42-355     2   54   87  -0.250  -0.140        0
  5382  1613-48-348     2   54   87  -0.250  -0.140        0
  5383  1613-55-348     2   54   87  -0.250  -0.140        0
  5384  1613-61-41      2   54   87  -0.250  -0.140        0
  5385  1613-66-12      2   54   87  -0.250  -0.140        0
  5386  1613-71-22      2   54   87  -0.250  -0.140        0
  5387  1613-71-365     2   54   87  -0.250  -0.140        0
  5388  1606-55-348     2   54   87  -0.020   0.150        0
  5389  1606-61-41      2   54   87  -0.020   0.150        0
  5390  1606-66-12      2   54   87  -0.020   0.150        0
  5391  1606-71-22      2   54   87  -0.020   0.150        0
  5392  1606-71-365     2   54   87  -0.020   0.150        0
  5393  1620-2-90       2   54   88  -0.370  -0.230        0
  5394  1620-12-324     2   54   88  -0.370  -0.230        0
  5395  1620-16-362     2   54   88  -0.370  -0.230        0
  5396  1705-48-335     2   52   92   0.320   0.320        0
  5397  1705-56-16      2   52   92   0.320   0.320        0
  5398  1705-61-60      2   52   92   0.320   0.320        0
  5399  1705-66-25      2   52   92   0.320   0.320        0
  5400  1530-48-335     3   55   88   0.350   0.200        0
  5401  1530-56-16      3   55   88   0.350   0.200        0
  5402  1530-61-60      3   55   88   0.350   0.200        0
  5403  1434-37-27      3   58   87  -0.310  -0.360        0
  5404  1434-42-356     3   58   87  -0.310  -0.360        0
  5405  1434-56-17      3   58   87  -0.310  -0.360        0
  5406  1434-60-321     3   58   87  -0.310  -0.360        0
  5407  1434-65-298     3   58   87  -0.310  -0.360        0
  5408  1434-71-365     3   58   87  -0.310  -0.360        0
  5409  1384-48-335     3   59   88   0.480  -0.050        0
  5410  1344-48-348     3   61   87  -0.290   0.330        0
  5411  1344-55-348     3   61   87  -0.290   0.330        0
  5412  1344-61-41      3   61   87  -0.290   0.330        0
  5413  1344-66-5       3   61   87  -0.290   0.330        0
  5414  1344-71-356     3   61   87  -0.290   0.330        0
  5415  1354-2-93       2   61   87  -0.480  -0.260        0
  5416  1354-7-52       2   61   87  -0.480  -0.260        0
  5417  1354-12-102     2   61   87  -0.480  -0.260        0
  5418  1354-17-71      2   61   87  -0.480  -0.260        0
  5419  1354-22-32      2   61   87  -0.480  -0.260        0
  5420  1354-32-90      2   61   87  -0.480  -0.260        0
  5421  1354-38-60      2   61   87  -0.480  -0.260        0
  5422  1358-32-90      3   61   87  -0.290  -0.350        0
  5423  1358-48-336     3   61   87  -0.290  -0.350        0
  5424  846-17-5        3   73   19  -0.300  -0.090        0
  5425  846-22-33       3   73   19  -0.300  -0.090        0
  5426  846-48-348      3   73   19  -0.300  -0.090        0
  5427  846-61-25       3   73   19  -0.300  -0.090        0
  5428  846-65-362      3   73   19  -0.300  -0.090        0
  5429  846-71-365      3   73   19  -0.300  -0.090        0
  5430  829-48-348      3   74   18  -0.310   0.420        0
  5431  829-55-353      3   74   18  -0.310   0.420        0
  5432  829-61-35       3   74   18  -0.310   0.420        0
  5433  829-65-362      3   74   18  -0.310   0.420        0
  5434  829-71-365      3   74   18  -0.310   0.420        0
  5435  839-12-121     -2   73   19   0.310   0.010        0
  5436  839-71-365     -2   73   19   0.310   0.010        0
  5437  817-1-220       2   74   19   0.080   0.140        0
  5438  817-6-331       2   74   19   0.080   0.140        0
  5439  817-12-8        2   74   19   0.080   0.140        0
  5440  813-32-87       3   74   19   0.110  -0.420        0
  5441  813-37-33       3   74   19   0.110  -0.420        0
  5442  813-42-350      3   74   19   0.110  -0.420        0
  5443  813-48-348      3   74   19   0.110  -0.420        0
  5444  813-56-17       3   74   19   0.110  -0.420        0
  5445  813-60-323      3   74   19   0.110  -0.420        0
  5446  813-65-301      3   74   19   0.110  -0.420        0
  5447  813-71-365      3   74   19   0.110  -0.420        0
  5448  818-17-5        2   74   19   0.080  -0.160        0
  5449  820-1-108       2   74   20  -0.030   0.150        0
  5450  812-17-5       -2   74   19   0.160   0.430        0
  5451  812-36-157     -2   74   19   0.160   0.430        0
  5452  812-56-17      -2   74   19   0.160   0.430        0
  5453  812-61-61      -2   74   19   0.160   0.430        0
  5454  812-66-19      -2   74   19   0.160   0.430        0
  5455  811-56-19       2   74   19   0.040   0.330        0
  5456  811-66-20       2   74   19   0.040   0.330        0
  5457  796-65-362      2   75   20  -0.270  -0.050        0
  5458  796-71-365      2   75   20  -0.270  -0.050        0
  5459  833-8-18       -2   73   21   0.470   0.130        0
  5460  822-1-63        2   74   21  -0.110   0.060        0
  5461  830-1-365       2   74   22  -0.340  -0.450        0
  5462  821-56-17       3   74   21  -0.140   0.390        0
  5463  821-61-61       3   74   21  -0.140   0.390        0
  5464  845-1-73        2   73   24  -0.360   0.190        0
  5465  845-7-2         2   73   24  -0.360   0.190        0
  5466  845-11-272      2   73   24  -0.360   0.190        0
  5467  845-16-318      2   73   24  -0.360   0.190        0
  5468  845-22-33       2   73   24  -0.360   0.190        0
  5469  845-31-351      2   73   24  -0.360   0.190        0
  5470  845-36-62       2   73   24  -0.360   0.190        0
  5471  845-42-350      2   73   24  -0.360   0.190        0
  5472  845-48-348      2   73   24  -0.360   0.190        0
  5473  845-56-19       2   73   24  -0.360   0.190        0
  5474  845-60-323      2   73   24  -0.360   0.190        0
  5475  845-65-301      2   73   24  -0.360   0.190        0
  5476  845-71-13       2   73   24  -0.360   0.190        0
  5477  1183-16-315    -2   64   29   0.310  -0.420        0
  5478  1183-26-354    -2   64   29   0.310  -0.420        0
  5479  1183-31-362    -2   64   29   0.310  -0.420        0
  5480  1183-36-356    -2   64   29   0.310  -0.420        0
  5481  1183-42-350    -2   64   29   0.310  -0.420        0
  5482  1183-48-348    -2   64   29   0.310  -0.420        0
  5483  1183-66-25     -2   64   29   0.310  -0.420        0
  5484  1183-71-365    -2   64   29   0.310  -0.420        0
  5485  1190-56-23     -2   64   29   0.310   0.290        0
  5486  1190-61-54     -2   64   29   0.310   0.290        0
  5487  1190-66-25     -2   64   29   0.310   0.290        0
  5488  1186-3-344      2   64   30   0.310  -0.380        0
  5489  1186-5-69       2   64   30   0.310  -0.380        0
  5490  1186-17-6       2   64   30   0.310  -0.380        0
  5491  1185-10-213     2   64   30   0.310  -0.350        0
  5492  1178-38-335     3   64   32   0.350   0.320        0
  5493  1178-42-349     3   64   32   0.350   0.320        0
  5494  1178-48-349     3   64   32   0.350   0.320        0
  5495  1178-55-353     3   64   32   0.350   0.320        0
  5496  1178-61-21      3   64   32   0.350   0.320        0
  5497  1178-66-34      3   64   32   0.350   0.320        0
  5498  1178-71-365     3   64   32   0.350   0.320        0
  5499  1182-66-25      2   64   31   0.350   0.310        0
  5500  1132-12-4       2   66   32  -0.420   0.250        0
  5501  1134-1-73       2   66   32  -0.500   0.380        0
  5502  1148-17-12     -2   65   36   0.280   0.290        0
  5503  1148-21-356    -2   65   36   0.280   0.290        0
  5504  1148-27-27     -2   65   36   0.280   0.290        0
  5505  1148-31-348    -2   65   36   0.280   0.290        0
  5506  1148-37-23     -2   65   36   0.280   0.290        0
  5507  1148-42-349    -2   65   36   0.280   0.290        0
  5508  1148-48-348    -2   65   36   0.280   0.290        0
  5509  1148-55-353    -2   65   36   0.280   0.290        0
  5510  1148-61-34     -2   65   36   0.280   0.290        0
  5511  1148-66-6      -2   65   36   0.280   0.290        0
  5512  1148-71-365    -2   65   36   0.280   0.290        0
  5513  1177-35-321     3   64   35   0.400  -0.470        0
  5514  1177-42-349     3   64   35   0.400  -0.470        0
  5515  1177-48-348     3   64   35   0.400  -0.470        0
  5516  1177-55-353     3   64   35   0.400  -0.470        0
  5517  1177-61-21      3   64   35   0.400  -0.470        0
  5518  1177-66-34      3   64   35   0.400  -0.470        0
  5519  1177-71-50      3   64   35   0.400  -0.470        0
  5520  1105-12-4       2   66   36   0.240   0.350        0
  5521  1105-16-333     2   66   36   0.240   0.350        0
  5522  1105-21-356     2   66   36   0.240   0.350        0
  5523  1106-42-349     3   66   37   0.310  -0.480        0
  5524  1106-55-353     3   66   37   0.310  -0.480        0
  5525  1106-61-13      3   66   37   0.310  -0.480        0
  5526  1106-66-6       3   66   37   0.310  -0.480        0
  5527  1106-71-365     3   66   37   0.310  -0.480        0
  5528  1102-66-6       3   66   37   0.280   0.400        0
  5529  1102-71-365     3   66   37   0.280   0.400        0
  5530  1120-3-152      2   66   38  -0.220  -0.250        0
  5531  1089-42-349    -2   66   34   0.420   0.430        0
  5532  1089-48-349    -2   66   34   0.420   0.430        0
  5533  1089-55-353    -2   66   34   0.420   0.430        0
  5534  1089-61-34     -2   66   34   0.420   0.430        0
  5535  1089-66-6      -2   66   34   0.420   0.430        0
  5536  1089-71-365    -2   66   34   0.420   0.430        0
  5537  1093-66-6       3   66   34   0.420   0.400        0
  5538  1093-71-365     3   66   34   0.420   0.400        0
  5539  1087-48-349    -2   66   33   0.420  -0.460        0
  5540  1087-61-24     -2   66   33   0.420  -0.460        0
  5541  1087-71-70     -2   66   33   0.420  -0.460        0
  5542  1097-15-1       3   66   41   0.360  -0.280        0
  5543  996-26-315      3   68   33   0.330  -0.400        0
  5544  996-48-349      3   68   33   0.330  -0.400        0
  5545  996-55-353      3   68   33   0.330  -0.400        0
  5546  996-61-11       3   68   33   0.330  -0.400        0
  5547  996-66-6        3   68   33   0.330  -0.400        0
  5548  996-71-365      3   68   33   0.330  -0.400        0
  5549  995-39-335     -2   68   34   0.340   0.360        0
  5550  995-42-349     -2   68   34   0.340   0.360        0
  5551  995-55-353     -2   68   34   0.340   0.360        0
  5552  995-61-34      -2   68   34   0.340   0.360        0
  5553  995-66-6       -2   68   34   0.340   0.360        0
  5554  995-71-365      3   68   34   0.340   0.360        0
  5555  1090-12-5       2   66   30   0.490   0.100        0
  5556  1090-17-5       2   66   30   0.490   0.100        0
  5557  969-56-19       3   69   26  -0.410   0.350        0
  5558  969-71-365      3   69   26  -0.410   0.350        0
  5559  983-42-349      3   68   30   0.440   0.420        0
  5560  983-55-353      3   68   30   0.440   0.420        0
  5561  983-61-34       3   68   30   0.440   0.420        0
  5562  983-66-6        3   68   30   0.440   0.420        0
  5563  983-71-365      3   68   30   0.440   0.420        0
  5564  982-39-238      3   68   30   0.480  -0.130        0
  5565  921-42-305      3   70   33   0.250  -0.400        0
  5566  921-48-349      3   70   33   0.250  -0.400        0
  5567  921-61-34       3   70   33   0.250  -0.400        0
  5568  921-65-356      3   70   33   0.250  -0.400        0
  5569  921-71-365      3   70   33   0.250  -0.400        0
  5570  924-43-60       3   70   34   0.210   0.390        0
  5571  924-48-348      3   70   34   0.210   0.390        0
  5572  924-55-353      3   70   34   0.210   0.390        0
  5573  924-61-34       3   70   34   0.210   0.390        0
  5574  924-66-6        3   70   34   0.210   0.390        0
  5575  924-71-365      3   70   34   0.210   0.390        0
  5576  909-56-16       3   71   32  -0.490  -0.380        0
  5577  911-34-337      3   70   31   0.470  -0.390        0
  5578  900-56-19      -2   71   27  -0.310   0.060        0
  5579  900-61-61      -2   71   27  -0.310   0.060        0
  5580  848-56-18      -2   73   28  -0.310  -0.290        0
  5581  848-66-28      -2   73   28  -0.310  -0.290        0
  5582  826-56-19       2   74   28  -0.200   0.330        0
  5583  800-61-61       2   74   28   0.330   0.290        0
  5584  800-66-28       2   74   28   0.330   0.290        0
  5585  803-33-59       2   74   29   0.370  -0.320        0
  5586  852-2-305       2   72   35   0.320   0.200        0
  5587  1249-56-27      2   62   61   0.470   0.000        0
  5588  1249-66-13      2   62   61   0.470   0.000        0
  5589  1249-71-365     2   62   61   0.470   0.000        0
  5590  1235-22-32     -2   63   61  -0.230  -0.290        0
  5591  1235-42-362    -2   63   61  -0.230  -0.290        0
  5592  1235-48-357    -2   63   61  -0.230  -0.290        0
  5593  1235-56-32     -2   63   61  -0.230  -0.290        0
  5594  1238-48-320     3   63   61  -0.270  -0.230        0
  5595  1238-56-10      3   63   61  -0.270  -0.230        0
  5596  1238-66-10      3   63   61  -0.270  -0.230        0
  5597  1238-71-41      2   63   61  -0.270  -0.230        0
  5598  1238-71-365     2   63   61  -0.270  -0.230        0
  5599  1225-1-365      1   63   61   0.270   0.200        0
  5600  1200-56-30      2   64   61  -0.080  -0.420        0
  5601  1200-66-10      1   64   61  -0.080  -0.420        0
  5602  1200-71-40      1   64   61  -0.080  -0.420        0
  5603  1198-71-48      1   64   62   0.110  -0.250        0
  5604  1262-48-320     3   62   61   0.310  -0.460        0
  5605  1262-56-10      3   62   61   0.310  -0.460        0
  5606  1262-60-362     3   62   61   0.310  -0.460        0
  5607  1262-66-10      3   62   61   0.310  -0.460        0
  5608  1262-71-41      2   62   61   0.310  -0.460        0
  5609  1263-48-320     2   62   61   0.310  -0.490        0
  5610  1263-56-10      2   62   61   0.310  -0.490        0
  5611  1263-60-362     2   62   61   0.310  -0.490        0
  5612  1263-66-10      2   62   61   0.310  -0.490        0
  5613  1263-71-60      2   62   61   0.310  -0.490        0
  5614  1263-71-365     2   62   61   0.310  -0.490        0
  5615  1239-17-44     -3   63   60  -0.270  -0.140        0
  5616  1239-22-32     -3   63   60  -0.270  -0.140        0
  5617  1239-43-5      -2   63   60  -0.270  -0.140        0
  5618  1239-48-364    -2   63   60  -0.270  -0.140        0
  5619  1239-56-41     -2   63   60  -0.270  -0.140        0
  5620  1239-60-362    -2   63   60  -0.270  -0.140        0
  5621  1239-66-10     -2   63   60  -0.270  -0.140        0
  5622  1239-71-365    -3   63   60  -0.270  -0.140        0
  5623  1232-48-321     2   63   60  -0.040  -0.140        0
  5624  1232-56-27      2   63   60  -0.040  -0.140        0
  5625  1232-60-361     2   63   60  -0.040  -0.140        0
  5626  1232-66-10      2   63   60  -0.040  -0.140        0
  5627  1232-71-41      2   63   60  -0.040  -0.140        0
  5628  1241-56-27      2   63   60  -0.300   0.280        0
  5629  1241-66-10      1   63   60  -0.300   0.280        0
  5630  1241-71-40      1   63   60  -0.300   0.280        0
  5631  1270-56-30      2   62   59   0.240   0.310        0
  5632  1270-71-42      1   62   59   0.240   0.310        0
  5633  1273-43-1       2   62   59   0.200   0.010        0
  5634  1273-48-364     2   62   59   0.200   0.010        0
  5635  1273-56-32      2   62   59   0.200   0.010        0
  5636  1273-60-362     2   62   59   0.200   0.010        0
  5637  1273-65-348     2   62   59   0.200   0.010        0
  5638  1273-71-365     2   62   59   0.200   0.010        0
  5639  1256-1-365      2   62   59   0.390   0.080        0
  5640  1234-43-5      -2   63   59  -0.420   0.470        0
  5641  1234-48-364    -2   63   59  -0.420   0.470        0
  5642  1234-56-32     -2   63   59  -0.420   0.470        0
  5643  1234-60-362    -2   63   59  -0.420   0.470        0
  5644  1233-56-32      2   63   60  -0.040  -0.460        0
  5645  1233-65-337     1   63   60  -0.040  -0.460        0
  5646  1233-71-365     1   63   60  -0.040  -0.460        0
  5647  1227-17-44     -2   63   59   0.420   0.470        0
  5648  1227-22-58     -2   63   59   0.420   0.470        0
  5649  1227-31-335    -2   63   59   0.420   0.470        0
  5650  1227-43-5      -2   63   59   0.420   0.470        0
  5651  1227-48-364    -2   63   59   0.420   0.470        0
  5652  1227-56-32     -2   63   59   0.420   0.470        0
  5653  1227-61-60     -2   63   59   0.420   0.470        0
  5654  1227-71-365    -2   63   59   0.420   0.470        0
  5655  1208-1-364      2   64   59  -0.230  -0.020        0
  5656  1208-6-360      2   64   59  -0.230  -0.020        0
  5657  1208-11-360     2   64   59  -0.230  -0.020        0
  5658  1208-16-357     2   64   59  -0.230  -0.020        0
  5659  1208-21-361     2   64   59  -0.230  -0.020        0
  5660  1208-26-354     2   64   59  -0.230  -0.020        0
  5661  1208-31-362     2   64   59  -0.230  -0.020        0
  5662  1219-22-33     -3   63   60   0.390   0.190        0
  5663  1219-33-165    -2   63   60   0.390   0.190        0
  5664  1219-42-362    -2   63   60   0.390   0.190        0
  5665  1219-48-357    -2   63   60   0.390   0.190        0
  5666  1219-56-32     -2   63   60   0.390   0.190        0
  5667  1219-60-362    -2   63   60   0.390   0.190        0
  5668  1219-66-10     -2   63   60   0.390   0.190        0
  5669  1219-71-365    -3   63   60   0.390   0.190        0
  5670  1217-56-27      2   63   60   0.460   0.120        0
  5671  1217-71-365     1   63   60   0.460   0.120        0
  5672  1205-33-160    -3   64   60  -0.160   0.380        0
  5673  1205-42-362    -2   64   60  -0.160   0.380        0
  5674  1205-48-357    -2   64   60  -0.160   0.380        0
  5675  1205-56-34     -2   64   60  -0.160   0.380        0
  5676  1205-66-10     -2   64   60  -0.160   0.380        0
  5677  1231-7-66      -3   63   58   0.270   0.230        0
  5678  1231-12-57     -3   63   58   0.270   0.230        0
  5679  1231-17-4      -3   63   58   0.270   0.230        0
  5680  1231-22-32     -3   63   58   0.270   0.230        0
  5681  1231-27-10     -3   63   58   0.270   0.230        0
  5682  1231-31-335    -3   63   58   0.270   0.230        0
  5683  1231-37-335    -2   63   58   0.270   0.230        0
  5684  1179-6-115      1   64   58   0.460  -0.190        0
  5685  1168-17-47      2   65   58  -0.240  -0.030        0
  5686  1168-22-32      2   65   58  -0.240  -0.030        0
  5687  1168-36-335     2   65   58  -0.240  -0.030        0
  5688  1114-1-365      1   66   57   0.140  -0.040        0
  5689  1122-17-47      2   66   58  -0.280   0.140        0
  5690  1122-22-32      2   66   58  -0.280   0.140        0
  5691  1122-42-356     2   66   58  -0.280   0.140        0
  5692  1122-48-335     2   66   58  -0.280   0.140        0
  5693  1140-7-66      -3   65   58   0.410  -0.220        0
  5694  1140-12-57     -3   65   58   0.410  -0.220        0
  5695  1140-17-4      -3   65   58   0.410  -0.220        0
  5696  1140-22-32     -3   65   58   0.410  -0.220        0
  5697  1140-31-335    -2   65   58   0.410  -0.220        0
  5698  1140-36-345    -2   65   58   0.410  -0.220        0
  5699  1193-48-321    -2   64   60   0.190   0.350        0
  5700  1193-56-30     -2   64   60   0.190   0.350        0
  5701  1176-48-320     3   64   61   0.490  -0.420        0
  5702  1176-56-10      3   64   61   0.490  -0.420        0
  5703  1176-60-361     3   64   61   0.490  -0.420        0
  5704  1176-66-10      3   64   61   0.490  -0.420        0
  5705  1176-71-40      2   64   61   0.490  -0.420        0
  5706  1176-71-365     2   64   61   0.490  -0.420        0
  5707  1159-66-10      1   65   60  -0.120   0.380        0
  5708  1159-71-62      1   65   60  -0.120   0.380        0
  5709  1159-71-365     1   65   60  -0.120   0.380        0
  5710  1160-71-62     -2   65   60  -0.120   0.190        0
  5711  1160-71-365    -2   65   60  -0.120   0.190        0
  5712  1147-42-356     3   65   60   0.180   0.220        0
  5713  1147-48-335     3   65   60   0.180   0.220        0
  5714  1147-56-17      3   65   60   0.180   0.220        0
  5715  1141-1-274      3   65   59   0.380  -0.120        0
  5716  1141-7-176      3   65   59   0.380  -0.120        0
  5717  1141-11-311     3   65   59   0.380  -0.120        0
  5718  1141-17-44      3   65   59   0.380  -0.120        0
  5719  1141-22-30      3   65   59   0.380  -0.120        0
  5720  1141-26-349     3   65   59   0.380  -0.120        0
  5721  1141-31-362     3   65   59   0.380  -0.120        0
  5722  1141-36-356     3   65   59   0.380  -0.120        0
  5723  1141-42-362     3   65   59   0.380  -0.120        0
  5724  1141-48-364     3   65   59   0.380  -0.120        0
  5725  1141-56-32      3   65   59   0.380  -0.120        0
  5726  1141-60-362     3   65   59   0.380  -0.120        0
  5727  1141-66-1       3   65   59   0.380  -0.120        0
  5728  1141-71-365     2   65   59   0.380  -0.120        0
  5729  1121-17-44     -3   66   60  -0.240   0.120        0
  5730  1121-22-33     -3   66   60  -0.240   0.120        0
  5731  1121-31-335    -3   66   60  -0.240   0.120        0
  5732  1121-35-345    -2   66   60  -0.240   0.120        0
  5733  1121-42-356    -2   66   60  -0.240   0.120        0
  5734  1121-48-355    -2   66   60  -0.240   0.120        0
  5735  1121-56-32     -2   66   60  -0.240   0.120        0
  5736  1121-60-362    -2   66   60  -0.240   0.120        0
  5737  1121-65-348    -3   66   60  -0.240   0.120        0
  5738  1121-71-365    -3   66   60  -0.240   0.120        0
  5739  1192-71-55      2   64   62   0.260   0.010        0
  5740  1157-48-322     3   65   62  -0.050  -0.350        0
  5741  1157-56-10      3   65   62  -0.050  -0.350        0
  5742  1157-60-361     3   65   62  -0.050  -0.350        0
  5743  1157-66-10      3   65   62  -0.050  -0.350        0
  5744  1157-71-40      2   65   62  -0.050  -0.350        0
  5745  1180-48-323     2   64   61   0.420   0.100        0
  5746  1167-71-365    -2   65   61  -0.310   0.200        0
  5747  1170-71-365    -2   65   61  -0.350   0.390        0
  5748  1172-71-365     1   65   62  -0.390  -0.450        0
  5749  1163-71-365    -2   65   61  -0.240  -0.060        0
  5750  1155-71-365     1   65   61  -0.010  -0.260        0
  5751  1144-71-365    -2   65   62   0.300   0.010        0
  5752  1080-22-33      1   67   62  -0.320  -0.350        0
  5753  1080-31-335     1   67   62  -0.320  -0.350        0
  5754  1080-42-356     1   67   62  -0.320  -0.350        0
  5755  1080-48-355     1   67   62  -0.320  -0.350        0
  5756  1085-42-356    -3   67   62  -0.400  -0.280        0
  5757  1085-48-355    -3   67   62  -0.400  -0.280        0
  5758  1091-71-56      2   66   61   0.480  -0.230        0
  5759  1048-71-365    -3   67   61   0.360  -0.030        0
  5760  1012-71-365    -3   68   61   0.090  -0.190        0
  5761  1039-48-322     2   68   62  -0.480  -0.180        0
  5762  1039-56-30      2   68   62  -0.480  -0.180        0
  5763  1039-60-362     2   68   62  -0.480  -0.180        0
  5764  1039-66-13      2   68   62  -0.480  -0.180        0
  5765  1039-71-365     2   68   62  -0.480  -0.180        0
  5766  1040-71-365     1   68   62  -0.480  -0.220        0
  5767  1075-17-44     -3   67   60  -0.170  -0.010        0
  5768  1075-22-33     -3   67   60  -0.170  -0.010        0
  5769  1075-31-335    -3   67   60  -0.170  -0.010        0
  5770  1053-42-357     3   67   59   0.250  -0.340        0
  5771  1056-48-335     3   67   59   0.210  -0.340        0
  5772  1056-56-17      3   67   59   0.210  -0.340        0
  5773  1016-17-32      3   68   59  -0.020  -0.340        0
  5774  1016-31-335     3   68   59  -0.020  -0.340        0
  5775  1016-37-319     3   68   59  -0.020  -0.340        0
  5776  1011-22-33     -3   68   59   0.090  -0.020        0
  5777  1015-42-356     2   68   60  -0.020  -0.400        0
  5778  1015-48-337     2   68   60  -0.020  -0.400        0
  5779  1015-56-19      2   68   60  -0.020  -0.400        0
  5780  1015-61-53      2   68   60  -0.020  -0.400        0
  5781  1015-66-32      2   68   60  -0.020  -0.400        0
  5782  1094-1-277      1   66   58   0.410   0.230        0
  5783  1094-6-340      1   66   58   0.410   0.230        0
  5784  1094-10-27      1   66   58   0.410   0.230        0
  5785  1077-7-176     -2   67   57  -0.290   0.060        0
  5786  1063-17-46     -3   67   57   0.140   0.190        0
  5787  1063-22-33     -3   67   57   0.140   0.190        0
  5788  1034-36-335    -2   68   57  -0.410   0.260        0
  5789  1034-42-362    -2   68   57  -0.410   0.260        0
  5790  1034-48-357    -2   68   57  -0.410   0.260        0
  5791  1034-56-34     -2   68   57  -0.410   0.260        0
  5792  1034-66-1      -2   68   57  -0.410   0.260        0
  5793  1034-71-54     -2   68   57  -0.410   0.260        0
  5794  1034-71-365    -2   68   57  -0.410   0.260        0
  5795  997-17-46       2   68   57   0.210  -0.170        0
  5796  997-22-33       2   68   57   0.210  -0.170        0
  5797  1008-1-121      1   68   57   0.130   0.190        0
  5798  1049-17-46     -2   67   58   0.250  -0.450        0
  5799  1049-31-335    -2   67   58   0.250  -0.450        0
  5800  1049-36-335    -2   67   58   0.250  -0.450        0
  5801  1049-42-356    -2   67   58   0.250  -0.450        0
  5802  1049-48-334    -2   67   58   0.250  -0.450        0
  5803  1049-56-18     -2   67   58   0.250  -0.450        0
  5804  1049-61-53     -2   67   58   0.250  -0.450        0
  5805  1007-11-194     2   68   58   0.130  -0.290        0
  5806  1007-17-4       2   68   58   0.130  -0.290        0
  5807  1007-22-32      2   68   58   0.130  -0.290        0
  5808  1007-27-10      2   68   58   0.130  -0.290        0
  5809  1007-31-335     2   68   58   0.130  -0.290        0
  5810  1007-37-319     2   68   58   0.130  -0.290        0
  5811  1006-1-364      2   68   58   0.130   0.230        0
  5812  1006-7-66       2   68   58   0.130   0.230        0
  5813  1006-11-258     2   68   58   0.130   0.230        0
  5814  1006-17-44      2   68   58   0.130   0.230        0
  5815  1065-42-356     2   67   56   0.060   0.020        0
  5816  1065-48-334     2   67   56   0.060   0.020        0
  5817  1065-56-18      2   67   56   0.060   0.020        0
  5818  1065-66-24      2   67   56   0.060   0.020        0
  5819  991-22-34       2   68   56   0.360   0.020        0
  5820  991-26-279      2   68   56   0.360   0.020        0
  5821  991-31-335      2   68   56   0.360   0.020        0
  5822  991-37-319      2   68   56   0.360   0.020        0
  5823  991-42-356      2   68   56   0.360   0.020        0
  5824  991-48-334      2   68   56   0.360   0.020        0
  5825  991-66-27       2   68   56   0.360   0.020        0
  5826  976-1-365       1   69   58  -0.370  -0.030        0
  5827  963-1-365       1   69   58  -0.140  -0.060        0
  5828  964-1-365       1   69   58  -0.140  -0.320        0
  5829  960-1-365       1   69   58  -0.100   0.230        0
  5830  953-1-364       1   69   58   0.200   0.200        0
  5831  950-17-4        1   69   58   0.240   0.200        0
  5832  936-1-365       2   70   57  -0.110  -0.100        0
  5833  932-1-365       1   70   57   0.120  -0.070        0
  5834  944-42-356      2   70   58  -0.380  -0.320        0
  5835  944-48-341      2   70   58  -0.380  -0.320        0
  5836  926-1-365       1   70   58   0.200  -0.320        0
  5837  929-1-364       1   70   58   0.160  -0.320        0
  5838  929-6-340       1   70   58   0.160  -0.320        0
  5839  929-11-333      1   70   58   0.160  -0.320        0
  5840  929-16-301      1   70   58   0.160  -0.320        0
  5841  974-42-362      3   69   60  -0.370   0.450        0
  5842  974-48-336      3   69   60  -0.370   0.450        0
  5843  974-56-18       3   69   60  -0.370   0.450        0
  5844  957-1-365       1   69   60   0.090  -0.270        0
  5845  942-1-365       1   70   59  -0.380   0.440        0
  5846  937-1-364       1   70   59  -0.150  -0.310        0
  5847  943-22-32       2   70   59  -0.150  -0.240        0
  5848  943-26-279      2   70   59  -0.150  -0.240        0
  5849  943-31-335      2   70   59  -0.150  -0.240        0
  5850  943-36-335      2   70   59  -0.150  -0.240        0
  5851  943-42-351      2   70   59  -0.150  -0.240        0
  5852  943-48-336      2   70   59  -0.150  -0.240        0
  5853  862-22-33      -3   72   61   0.110   0.430        0
  5854  862-27-59      -3   72   61   0.110   0.430        0
  5855  862-31-335     -3   72   61   0.110   0.430        0
  5856  862-36-336     -3   72   61   0.110   0.430        0
  5857  862-42-351     -3   72   61   0.110   0.430        0
  5858  862-48-337     -3   72   61   0.110   0.430        0
  5859  901-1-364       1   71   60  -0.310   0.160        0
  5860  907-37-342     -2   71   60  -0.420  -0.330        0
  5861  903-1-365       1   71   60  -0.340  -0.270        0
  5862  895-42-356      3   71   60  -0.120  -0.200        0
  5863  895-48-337      3   71   60  -0.120  -0.200        0
  5864  898-1-32        2   71   59  -0.190  -0.380        0
  5865  898-17-4        2   71   59  -0.190  -0.380        0
  5866  889-22-32      -3   71   59   0.190  -0.380        0
  5867  889-26-279     -3   71   59   0.190  -0.380        0
  5868  889-31-335     -3   71   59   0.190  -0.380        0
  5869  889-36-336     -3   71   59   0.190  -0.380        0
  5870  889-42-356     -3   71   59   0.190  -0.380        0
  5871  889-48-337     -3   71   59   0.190  -0.380        0
  5872  889-61-54      -3   71   59   0.190  -0.380        0
  5873  883-42-356      1   71   59   0.230   0.340        0
  5874  621-37-343     -2   72   59   0.220   0.080        0
  5875  934-33-21       3   70   60   0.040   0.320        0
  5876  863-1-365       2   72   60   0.110   0.480        0
  5877  914-48-336      2   70   58   0.430   0.140        0
  5878  914-61-55       2   70   58   0.430   0.140        0
  5879  902-17-47      -3   71   58  -0.310   0.170        0
  5880  902-22-32      -3   71   58  -0.310   0.170        0
  5881  902-26-278     -3   71   58  -0.310   0.170        0
  5882  902-36-336     -3   71   58  -0.310   0.170        0
  5883  902-42-356     -2   71   58  -0.310   0.170        0
  5884  902-48-337     -2   71   58  -0.310   0.170        0
  5885  902-61-54      -2   71   58  -0.310   0.170        0
  5886  916-1-365       1   70   58   0.390  -0.160        0
  5887  916-7-298       1   70   58   0.390  -0.160        0
  5888  916-11-258      1   70   58   0.390  -0.160        0
  5889  916-17-32       1   70   58   0.390  -0.160        0
  5890  916-22-34       1   70   58   0.390  -0.160        0
  5891  916-26-278      1   70   58   0.390  -0.160        0
  5892  916-36-336      1   70   58   0.390  -0.160        0
  5893  916-42-362      1   70   58   0.390  -0.160        0
  5894  916-48-335      1   70   58   0.390  -0.160        0
  5895  916-61-55       1   70   58   0.390  -0.160        0
  5896  917-42-362      2   70   58   0.390  -0.290        0
  5897  917-48-335      2   70   58   0.390  -0.290        0
  5898  905-1-365       1   71   58  -0.340  -0.320        0
  5899  910-42-362     -2   71   57  -0.500   0.190        0
  5900  897-1-365       2   71   57  -0.120   0.160        0
  5901  864-1-364       1   72   58   0.150   0.430        0
  5902  865-42-356     -2   72   58   0.150   0.400        0
  5903  865-48-335     -2   72   58   0.150   0.400        0
  5904  854-1-365       1   72   58   0.420   0.230        0
  5905  856-1-365       1   72   58   0.340  -0.350        0
  5906  851-22-34      -3   73   58  -0.320   0.010        0
  5907  851-26-278     -3   73   58  -0.320   0.010        0
  5908  851-37-342     -3   73   58  -0.320   0.010        0
  5909  851-48-337     -2   73   58  -0.320   0.010        0
  5910  851-61-54      -2   73   58  -0.320   0.010        0
  5911  843-1-365       1   73   58  -0.130   0.460        0
  5912  841-1-365       1   73   58   0.100   0.460        0
  5913  836-17-4        1   73   57   0.300  -0.130        0
  5914  823-1-365       1   74   57  -0.130   0.420        0
  5915  859-48-337      1   72   59   0.220   0.180        0
  5916  842-37-342     -2   73   59   0.070   0.110        0
  5917  842-42-356     -2   73   59   0.070   0.110        0
  5918  842-48-337     -2   73   59   0.070   0.110        0
  5919  842-61-54      -2   73   59   0.070   0.110        0
  5920  831-42-351     -2   74   59  -0.360  -0.310        0
  5921  831-48-337     -2   74   59  -0.360  -0.310        0
  5922  828-42-351     -3   74   59  -0.210   0.050        0
  5923  828-48-337     -3   74   59  -0.210   0.050        0
  5924  819-1-365       1   74   60   0.100  -0.300        0
  5925  1254-71-42      2   62   74   0.250  -0.260        0
  5926  1228-37-95      1   63   74   0.220   0.050        0
  5927  1228-42-356     1   63   74   0.220   0.050        0
  5928  1228-56-20      1   63   74   0.220   0.050        0
  5929  1228-66-25      1   63   74   0.220   0.050        0
  5930  1228-71-40      1   63   74   0.220   0.050        0
  5931  1199-48-344     2   64   74  -0.090   0.350        0
  5932  1199-56-20      2   64   74  -0.090   0.350        0
  5933  1199-61-60      2   64   74  -0.090   0.350        0
  5934  1199-66-25      2   64   74  -0.090   0.350        0
  5935  1199-71-40      2   64   74  -0.090   0.350        0
  5936  1243-42-362     2   63   70  -0.350  -0.340        0
  5937  1243-56-18      2   63   70  -0.350  -0.340        0
  5938  1243-61-60      2   63   70  -0.350  -0.340        0
  5939  1243-66-27      2   63   70  -0.350  -0.340        0
  5940  1243-71-56      2   63   70  -0.350  -0.340        0
  5941  1218-71-365    -3   63   64   0.350  -0.460        0
  5942  1204-42-356    -3   64   64  -0.200  -0.360        0
  5943  1204-56-17     -3   64   64  -0.200  -0.360        0
  5944  1204-66-26     -3   64   64  -0.200  -0.360        0
  5945  1204-71-365    -3   64   64  -0.200  -0.360        0
  5946  1131-71-365     2   66   63  -0.400  -0.140        0
  5947  1112-48-320     2   66   63   0.140  -0.010        0
  5948  1112-56-25      2   66   63   0.140  -0.010        0
  5949  1112-60-362     2   66   63   0.140  -0.010        0
  5950  1112-65-348     2   66   63   0.140  -0.010        0
  5951  1112-71-60      2   66   63   0.140  -0.010        0
  5952  1112-71-365     2   66   63   0.140  -0.010        0
  5953  1118-71-365     1   66   64  -0.010  -0.360        0
  5954  1111-71-362    -2   66   66   0.140   0.440        0
  5955  1169-71-362     1   65   67  -0.360   0.220        0
  5956  1100-48-348    -2   66   73   0.280  -0.080        0
  5957  1100-56-25     -2   66   73   0.280  -0.080        0
  5958  1100-61-56     -2   66   73   0.280  -0.080        0
  5959  1100-66-42     -2   66   73   0.280  -0.080        0
  5960  1100-71-365    -2   66   73   0.280  -0.080        0
  5961  1051-42-355    -2   67   73   0.160  -0.240        0
  5962  1051-48-365    -2   67   73   0.160  -0.240        0
  5963  1051-56-25     -2   67   73   0.160  -0.240        0
  5964  1051-61-42     -2   67   73   0.160  -0.240        0
  5965  1051-66-53     -2   67   73   0.160  -0.240        0
  5966  1051-71-365    -2   67   73   0.160  -0.240        0
  5967  1036-12-95      1   68   73  -0.490  -0.310        0
  5968  1036-26-349     1   68   73  -0.490  -0.310        0
  5969  1036-48-348     1   68   73  -0.490  -0.310        0
  5970  1036-56-25      1   68   73  -0.490  -0.310        0
  5971  1036-61-42      1   68   73  -0.490  -0.310        0
  5972  1036-66-53      1   68   73  -0.490  -0.310        0
  5973  1036-71-365     1   68   73  -0.490  -0.310        0
  5974  1025-56-27      1   68   72  -0.300  -0.380        0
  5975  1025-66-59      1   68   72  -0.300  -0.380        0
  5976  1054-66-59      1   67   71   0.210  -0.460        0
  5977  1055-65-348     1   67   70   0.170  -0.340        0
  5978  1001-56-18      1   68   70   0.160  -0.340        0
  5979  1001-65-348     1   68   70   0.160  -0.340        0
  5980  1027-56-18      1   68   70  -0.300   0.480        0
  5981  1086-71-55      1   66   66   0.480  -0.110        0
  5982  1099-26-349    -3   66   63   0.330  -0.340        0
  5983  1099-43-4      -3   66   63   0.330  -0.340        0
  5984  1099-48-362    -3   66   63   0.330  -0.340        0
  5985  1099-56-9      -3   66   63   0.330  -0.340        0
  5986  1042-48-355     2   67   63   0.480  -0.300        0
  5987  1042-56-25      2   67   63   0.480  -0.300        0
  5988  1042-60-362     2   67   63   0.480  -0.300        0
  5989  1042-65-348     2   67   63   0.480  -0.300        0
  5990  1042-71-365     2   67   63   0.480  -0.300        0
  5991  952-56-33       1   69   70   0.200  -0.330        0
  5992  952-65-348      1   69   70   0.200  -0.330        0
  5993  949-56-27       2   69   73   0.230  -0.400        0
  5994  993-56-27       1   68   71   0.280  -0.360        0
  5995  956-56-29       2   69   71   0.120  -0.160        0
  5996  886-71-355     -2   71   74   0.140   0.420        0
  5997  886-71-362     -2   71   74   0.140   0.420        0
  5998  913-42-355      1   70   73   0.420   0.440        0
  5999  913-48-334      1   70   73   0.420   0.440        0
  6000  913-56-18       1   70   73   0.420   0.440        0
  6001  913-61-53       1   70   73   0.420   0.440        0
  6002  913-66-32       1   70   73   0.420   0.440        0
  6003  874-71-61       2   72   73  -0.290  -0.240        0
  6004  933-48-338      1   70   69   0.040  -0.280        0
  6005  933-56-18       1   70   69   0.040  -0.280        0
  6006  933-61-53       1   70   69   0.040  -0.280        0
  6007  933-66-32       1   70   69   0.040  -0.280        0
  6008  887-26-285     -2   71   69   0.220  -0.310        0
  6009  887-31-335     -2   71   69   0.220  -0.310        0
  6010  887-37-1       -2   71   69   0.220  -0.310        0
  6011  887-42-357     -2   71   69   0.220  -0.310        0
  6012  877-42-352      1   72   69  -0.350  -0.310        0
  6013  877-48-338      1   72   69  -0.350  -0.310        0
  6014  877-61-53       1   72   69  -0.350  -0.310        0
  6015  877-66-32       1   72   69  -0.350  -0.310        0
  6016  919-42-357     -2   70   65   0.270   0.460        0
  6017  920-42-357     -2   70   65   0.270  -0.320        0
  6018  888-42-357      1   71   65   0.150   0.470        0
  6019  892-17-48      -2   71   65  -0.080  -0.350        0
  6020  892-22-37      -2   71   65  -0.080  -0.350        0
  6021  892-26-285     -2   71   65  -0.080  -0.350        0
  6022  892-31-335     -2   71   65  -0.080  -0.350        0
  6023  892-36-337     -2   71   65  -0.080  -0.350        0
  6024  878-36-335     -2   72   63  -0.310  -0.400        0
  6025  878-42-359     -2   72   63  -0.310  -0.400        0
  6026  878-71-365     -2   72   63  -0.310  -0.400        0
  6027  853-22-37       2   72   63   0.340  -0.300        0
  6028  853-26-336      2   72   63   0.340  -0.300        0
  6029  853-48-362      2   72   63   0.340  -0.300        0
  6030  853-56-9        2   72   63   0.340  -0.300        0
  6031  853-61-47       2   72   63   0.340  -0.300        0
  6032  853-65-357      2   72   63   0.340  -0.300        0
  6033  853-71-362      2   72   63   0.340  -0.300        0
  6034  844-43-4       -2   73   63  -0.090  -0.340        0
  6035  844-48-362     -2   73   63  -0.090  -0.340        0
  6036  844-56-9       -2   73   63  -0.090  -0.340        0
  6037  844-61-47      -2   73   63  -0.090  -0.340        0
  6038  844-65-357     -2   73   63  -0.090  -0.340        0
  6039  844-71-362     -2   73   63  -0.090  -0.340        0
  6040  834-16-364     -2   73   63   0.370  -0.340        0
  6041  834-26-280     -2   73   63   0.370  -0.340        0
  6042  834-43-4       -2   73   63   0.370  -0.340        0
  6043  834-56-20      -2   73   63   0.370  -0.340        0
  6044  834-60-306     -2   73   63   0.370  -0.340        0
  6045  834-65-357     -2   73   63   0.370  -0.340        0
  6046  834-71-362     -2   73   63   0.370  -0.340        0
  6047  835-65-357      1   73   63   0.290  -0.340        0
  6048  835-71-362      1   73   63   0.290  -0.340        0
  6049  815-1-365       1   74   63   0.140  -0.300        0
  6050  850-17-80       2   73   69  -0.440   0.020        0
  6051  850-22-37       2   73   69  -0.440   0.020        0
  6052  850-26-285      2   73   69  -0.440   0.020        0
  6053  850-31-335      2   73   69  -0.440   0.020        0
  6054  850-38-60       2   73   69  -0.440   0.020        0
  6055  850-42-352      2   73   69  -0.440   0.020        0
  6056  850-48-338      2   73   69  -0.440   0.020        0
  6057  850-60-320      2   73   69  -0.440   0.020        0
  6058  850-65-298      2   73   69  -0.440   0.020        0
  6059  850-71-365      2   73   69  -0.440   0.020        0
  6060  1259-66-59      2   62   84   0.290  -0.310        0
  6061  1236-66-59      2   63   84  -0.290   0.110        0
  6062  1260-66-59      2   62   84   0.290  -0.470        0
  6063  1244-66-59      2   63   84  -0.410  -0.470        0
  6064  1252-35-23      2   62   81   0.260  -0.310        0
  6065  1267-71-365     2   62   81   0.250  -0.140        0
  6066  1253-37-90      2   62   79   0.370   0.030        0
  6067  1253-42-355     2   62   79   0.370   0.030        0
  6068  1253-48-349     2   62   79   0.370   0.030        0
  6069  1253-56-11      2   62   79   0.370   0.030        0
  6070  1253-61-56      2   62   79   0.370   0.030        0
  6071  1253-66-59      2   62   79   0.370   0.030        0
  6072  1253-71-365     2   62   79   0.370   0.030        0
  6073  1245-37-90      2   62   77   0.220   0.280        0
  6074  1245-42-355     2   62   77   0.220   0.280        0
  6075  1245-48-349     2   62   77   0.220   0.280        0
  6076  1245-55-357     2   62   77   0.220   0.280        0
  6077  1245-61-12      2   62   77   0.220   0.280        0
  6078  1245-66-49      2   62   77   0.220   0.280        0
  6079  1245-71-365     2   62   77   0.220   0.280        0
  6080  1250-17-86     -2   62   75   0.260   0.090        0
  6081  1250-32-69     -2   62   75   0.260   0.090        0
  6082  1250-37-95     -2   62   75   0.260   0.090        0
  6083  1250-56-19      2   62   75   0.260   0.090        0
  6084  1250-61-60      2   62   75   0.260   0.090        0
  6085  1251-12-296    -2   62   75   0.380  -0.300        0
  6086  1251-17-86     -2   62   75   0.380  -0.300        0
  6087  1251-32-69     -2   62   75   0.380  -0.300        0
  6088  1251-37-95     -2   62   75   0.380  -0.300        0
  6089  1251-42-356    -2   62   75   0.380  -0.300        0
  6090  1251-48-334    -2   62   75   0.380  -0.300        0
  6091  1251-56-19     -2   62   75   0.380  -0.300        0
  6092  1251-60-321    -2   62   75   0.380  -0.300        0
  6093  1251-65-298    -2   62   75   0.380  -0.300        0
  6094  1251-71-365    -2   62   75   0.380  -0.300        0
  6095  1226-48-344     2   63   75   0.180   0.320        0
  6096  1226-56-19      2   63   75   0.180   0.320        0
  6097  1226-61-60      2   63   75   0.180   0.320        0
  6098  1226-66-25      2   63   75   0.180   0.320        0
  6099  1226-71-42      2   63   75   0.180   0.320        0
  6100  1195-12-297    -2   64   76  -0.170   0.110        0
  6101  1195-17-60     -2   64   76  -0.170   0.110        0
  6102  1195-32-69     -2   64   76  -0.170   0.110        0
  6103  1195-37-95     -2   64   76  -0.170   0.110        0
  6104  1195-48-344     2   64   76  -0.170   0.110        0
  6105  1195-56-19      2   64   76  -0.170   0.110        0
  6106  1195-66-25      2   64   76  -0.170   0.110        0
  6107  1128-70-357     2   66   75  -0.250   0.200        0
  6108  1128-71-365     2   66   75  -0.250   0.200        0
  6109  1110-17-78      1   66   76  -0.060   0.010        0
  6110  1110-32-70      1   66   76  -0.060   0.010        0
  6111  1110-37-1       1   66   76  -0.060   0.010        0
  6112  1137-16-357     2   65   78   0.400   0.000        0
  6113  1173-66-5       2   65   84  -0.460   0.080        0
  6114  1173-71-365     2   65   84  -0.460   0.080        0
  6115  1044-16-362     2   67   82   0.270  -0.350        0
  6116  1044-32-69      2   67   82   0.270  -0.350        0
  6117  1044-37-95      2   67   82   0.270  -0.350        0
  6118  1044-42-356     2   67   82   0.270  -0.350        0
  6119  1044-48-344     2   67   82   0.270  -0.350        0
  6120  1044-56-20      2   67   82   0.270  -0.350        0
  6121  1044-61-60      2   67   82   0.270  -0.350        0
  6122  1044-66-25      2   67   82   0.270  -0.350        0
  6123  1050-71-40      2   67   82   0.300  -0.390        0
  6124  1045-31-349     2   67   79   0.310  -0.350        0
  6125  1045-37-26      2   67   79   0.310  -0.350        0
  6126  1045-42-354     2   67   79   0.310  -0.350        0
  6127  1045-48-344     2   67   79   0.310  -0.350        0
  6128  1045-56-17      2   67   79   0.310  -0.350        0
  6129  1045-60-320     2   67   79   0.310  -0.350        0
  6130  1045-65-298     2   67   79   0.310  -0.350        0
  6131  1045-71-365     2   67   79   0.310  -0.350        0
  6132  1046-31-349     2   67   79   0.310  -0.350        0
  6133  1046-42-354     2   67   79   0.310  -0.350        0
  6134  1046-48-344     2   67   79   0.310  -0.350        0
  6135  1046-56-17      2   67   79   0.310  -0.350        0
  6136  1046-60-320     2   67   79   0.310  -0.350        0
  6137  1046-65-298     2   67   79   0.310  -0.350        0
  6138  1046-71-365     2   67   79   0.310  -0.350        0
  6139  1047-31-349     2   67   79   0.310  -0.350        0
  6140  1047-42-354     2   67   79   0.310  -0.350        0
  6141  1047-48-344     2   67   79   0.310  -0.350        0
  6142  1047-56-17      2   67   79   0.310  -0.350        0
  6143  1047-60-320     2   67   79   0.310  -0.350        0
  6144  1047-65-298     2   67   79   0.310  -0.350        0
  6145  1047-71-365     2   67   79   0.310  -0.350        0
  6146  1059-32-70      2   67   78  -0.150  -0.260        0
  6147  1059-56-19      2   67   78  -0.150  -0.260        0
  6148  1059-61-54      2   67   78  -0.150  -0.260        0
  6149  1059-66-32      2   67   78  -0.150  -0.260        0
  6150  1070-36-283    -2   67   75  -0.180   0.000        0
  6151  1017-17-78      2   69   76   0.110   0.110        0
  6152  1017-31-349     2   69   76   0.110   0.110        0
  6153  1017-37-26      2   69   76   0.110   0.110        0
  6154  1017-42-355     2   69   76   0.110   0.110        0
  6155  1004-71-365     2   68   77   0.120  -0.460        0
  6156  988-2-60        1   68   76   0.420  -0.470        0
  6157  979-42-355     -2   69   75  -0.420   0.010        0
  6158  979-48-334     -2   69   75  -0.420   0.010        0
  6159  979-56-18      -2   69   75  -0.420   0.010        0
  6160  979-61-53      -2   69   75  -0.420   0.010        0
  6161  961-7-85        1   69   75  -0.150  -0.220        0
  6162  961-12-60       1   69   75  -0.150  -0.220        0
  6163  961-16-362      1   69   75  -0.150  -0.220        0
  6164  955-61-53       1   69   75   0.110  -0.220        0
  6165  955-66-31       1   69   75   0.110  -0.220        0
  6166  925-71-365      2   70   76   0.180  -0.370        0
  6167  940-71-365     -2   70   76  -0.470   0.340        0
  6168  945-71-365      2   70   76  -0.430   0.340        0
  6169  959-66-49       2   69   80  -0.120   0.280        0
  6170  959-71-365      2   69   80  -0.120   0.280        0
  6171  922-61-42       2   70   80   0.220  -0.110        0
  6172  922-66-54       2   70   80   0.220  -0.110        0
  6173  922-71-365      2   70   80   0.220  -0.110        0
  6174  978-66-59       2   69   83  -0.430  -0.410        0
  6175  978-71-365      2   69   83  -0.430  -0.410        0
  6176  977-56-17       2   69   85  -0.480  -0.130        0
  6177  977-61-53       2   69   85  -0.480  -0.130        0
  6178  977-66-32       2   69   85  -0.480  -0.130        0
  6179  973-32-70       2   69   85  -0.400   0.040        0
  6180  973-38-60       2   69   85  -0.400   0.040        0
  6181  973-56-17       2   69   85  -0.400   0.040        0
  6182  973-61-53       2   69   85  -0.400   0.040        0
  6183  954-42-354      2   69   85   0.130   0.130        0
  6184  954-48-335      2   69   85   0.130   0.130        0
  6185  870-12-60       3   72   86  -0.190  -0.340        0
  6186  870-17-78       3   72   86  -0.190  -0.340        0
  6187  870-22-89       3   72   86  -0.190  -0.340        0
  6188  870-32-70       3   72   86  -0.190  -0.340        0
  6189  870-37-1        3   72   86  -0.190  -0.340        0
  6190  870-42-354      3   72   86  -0.190  -0.340        0
  6191  869-7-171       2   72   86  -0.190  -0.340        0
  6192  869-42-354      2   72   86  -0.190  -0.340        0
  6193  869-56-18       2   72   86  -0.190  -0.340        0
  6194  869-60-320      2   72   86  -0.190  -0.340        0
  6195  869-65-299      2   72   86  -0.190  -0.340        0
  6196  869-71-365      2   72   86  -0.190  -0.340        0
  6197  915-66-53       2   70   84   0.360  -0.200        0
  6198  915-71-365      2   70   84   0.360  -0.200        0
  6199  912-66-41       2   70   82   0.400   0.170        0
  6200  912-71-365      2   70   82   0.400   0.170        0
  6201  875-2-86        2   72   82  -0.330  -0.150        0
  6202  879-61-53       2   72   82  -0.370   0.080        0
  6203  879-66-46       2   72   82  -0.370   0.080        0
  6204  879-71-365      2   72   82  -0.370   0.080        0
  6205  881-2-87        2   71   80   0.440   0.480        0
  6206  891-48-334      1   71   77   0.020  -0.330        0
  6207  891-56-18       1   71   77   0.020  -0.330        0
  6208  891-61-62       1   71   77   0.020  -0.330        0
  6209  891-66-32       1   71   77   0.020  -0.330        0
  6210  891-71-64       1   71   77   0.020  -0.330        0
  6211  876-42-355     -2   72   78  -0.370   0.170        0
  6212  876-48-334     -2   72   78  -0.370   0.170        0
  6213  876-56-19      -2   72   78  -0.370   0.170        0
  6214  876-61-62      -2   72   78  -0.370   0.170        0
  6215  876-66-32      -2   72   78  -0.370   0.170        0
  6216  866-66-32       2   72   78   0.020  -0.090        0
  6217  866-71-64       2   72   78   0.020  -0.090        0
  6218  873-33-328      2   72   78  -0.290   0.200        0
  6219  918-42-355     -2   70   76   0.340   0.440        0
  6220  906-37-28      -3   71   77  -0.430  -0.460        0
  6221  923-42-355      1   70   75   0.220  -0.020        0
  6222  923-48-334      1   70   75   0.220  -0.020        0
  6223  923-56-18       1   70   75   0.220  -0.020        0
  6224  849-42-356      1   73   75  -0.400  -0.050        0
  6225  849-56-18       1   73   75  -0.400  -0.050        0
  6226  3417-32-69     -2   74   85  -0.010   0.310        0
  6227  3417-35-23     -2   74   85  -0.010   0.310        0
  6228  3417-42-354    -2   74   85  -0.010   0.310        0
  6229  3417-48-335    -2   74   85  -0.010   0.310        0
  6230  3417-56-17     -2   74   85  -0.010   0.310        0
  6231  3417-61-53     -2   74   85  -0.010   0.310        0
  6232  1921-16-362     3   62   88   0.350   0.020        0
  6233  1229-36-319     2   63   87   0.080   0.010        0
  6234  1202-42-362     2   64   88  -0.150  -0.370        0
  6235  1202-48-336     2   64   88  -0.150  -0.370        0
  6236  1164-2-93       2   65   88  -0.310   0.380        0
  6237  1164-16-300     2   65   88  -0.310   0.380        0
  6238  1164-27-12      2   65   88  -0.310   0.380        0
  6239  1164-48-336     2   65   88  -0.310   0.380        0
  6240  1164-56-17      2   65   88  -0.310   0.380        0
  6241  1164-61-60      2   65   88  -0.310   0.380        0
  6242  1125-71-356     2   66   90  -0.240  -0.120        0
  6243  1123-71-53      2   66   90  -0.210  -0.120        0
  6244  1543-2-90       2   67   92   0.280  -0.060        0
  6245  1543-56-19      2   67   92   0.280  -0.060        0
  6246  1543-66-26      2   67   92   0.280  -0.060        0
  6247  1084-48-338     2   67   91  -0.440   0.060        0
  6248  1067-71-63      2   67   90  -0.100   0.140        0
  6249  1066-71-63      2   67   90  -0.100   0.210        0
  6250  1544-2-88       2   67   91   0.130  -0.430        0
  6251  1544-12-324     2   67   91   0.130  -0.430        0
  6252  1593-61-60      2   67   89  -0.400  -0.090        0
  6253  1593-66-26      2   67   89  -0.400  -0.090        0
  6254  1069-71-365     2   67   88  -0.210  -0.230        0
  6255  1052-56-17      2   67   88   0.210   0.350        0
  6256  1052-66-26      2   67   88   0.210   0.350        0
  6257  989-66-20       2   68   89   0.480  -0.410        0
  6258  966-22-60       2   69   88  -0.260   0.060        0
  6259  987-12-324      2   68   92   0.310   0.260        0
  6260  987-22-33       2   68   92   0.310   0.260        0
  6261  987-27-12       2   68   92   0.310   0.260        0
  6262  987-66-20       2   68   92   0.310   0.260        0
  6263  858-71-63       2   72   92   0.230   0.000        0
  6264  890-42-362     -2   71   91   0.000  -0.490        0
  6265  890-48-338     -2   71   91   0.000  -0.490        0
  6266  890-56-19      -2   71   91   0.000  -0.490        0
  6267  890-61-60      -2   71   91   0.000  -0.490        0
  6268  890-66-20      -2   71   91   0.000  -0.490        0
  6269  908-71-365      2   71   89  -0.500   0.140        0
  6270  667-17-5        2   82   14  -0.360   0.260        0
  6271  667-22-1        2   82   14  -0.360   0.260        0
  6272  667-27-14       2   82   14  -0.360   0.260        0
  6273  667-31-350      2   82   14  -0.360   0.260        0
  6274  667-37-340      2   82   14  -0.360   0.260        0
  6275  667-42-351      2   82   14  -0.360   0.260        0
  6276  667-48-348      2   82   14  -0.360   0.260        0
  6277  652-27-14       3   82   14   0.290   0.190        0
  6278  652-56-17       3   82   14   0.290   0.190        0
  6279  652-66-20       3   82   14   0.290   0.190        0
  6280  614-27-14       2   84   13  -0.300   0.040        0
  6281  613-56-17       2   84   13  -0.110   0.140        0
  6282  641-1-260       1   83   11  -0.380  -0.370        0
  6283  641-26-1        2   83   11  -0.380  -0.370        0
  6284  641-56-18       2   83   11  -0.380  -0.370        0
  6285  641-66-31       2   83   11  -0.380  -0.370        0
  6286  793-6-289      -2   75   20  -0.120  -0.210        0
  6287  793-48-348     -2   75   20  -0.120  -0.210        0
  6288  793-61-25      -2   75   20  -0.120  -0.210        0
  6289  793-65-357     -2   75   20  -0.120  -0.210        0
  6290  793-71-365     -2   75   20  -0.120  -0.210        0
  6291  762-56-18       2   76   21  -0.160  -0.400        0
  6292  762-61-61       2   76   21  -0.160  -0.400        0
  6293  762-66-34       2   76   21  -0.160  -0.400        0
  6294  758-48-348     -2   76   19   0.220  -0.260        0
  6295  758-55-353     -2   76   19   0.220  -0.260        0
  6296  758-61-25      -2   76   19   0.220  -0.260        0
  6297  758-65-362     -2   76   19   0.220  -0.260        0
  6298  758-71-365     -2   76   19   0.220  -0.260        0
  6299  766-10-104      2   76   16  -0.130   0.460        0
  6300  773-36-156      3   76   16  -0.440   0.430        0
  6301  722-8-276       2   78   17   0.200  -0.290        0
  6302  722-12-360      2   78   17   0.200  -0.290        0
  6303  722-22-3        2   78   17   0.200  -0.290        0
  6304  741-65-362      2   77   17  -0.020   0.300        0
  6305  741-71-365      2   77   17  -0.020   0.300        0
  6306  738-65-362      2   77   17   0.090   0.040        0
  6307  738-71-365      2   77   17   0.090   0.040        0
  6308  743-65-362      2   77   18  -0.100  -0.470        0
  6309  743-71-365      2   77   18  -0.100  -0.470        0
  6310  740-65-362      2   77   17   0.060   0.430        0
  6311  740-71-365      2   77   17   0.060   0.430        0
  6312  737-22-3        2   77   18   0.210  -0.240        0
  6313  737-48-348      2   77   18   0.210  -0.240        0
  6314  737-61-25       2   77   18   0.210  -0.240        0
  6315  737-65-362      2   77   18   0.210  -0.240        0
  6316  737-71-365      2   77   18   0.210  -0.240        0
  6317  723-12-180      2   78   23   0.220  -0.320        0
  6318  723-17-9        2   78   23   0.220  -0.320        0
  6319  723-22-1        2   78   23   0.220  -0.320        0
  6320  723-32-85       2   78   23   0.220  -0.320        0
  6321  748-61-61       2   77   26  -0.190   0.330        0
  6322  748-66-33       2   77   26  -0.190   0.330        0
  6323  714-56-19       2   79   26  -0.160   0.260        0
  6324  714-61-61       2   79   26  -0.160   0.260        0
  6325  715-56-17       2   78   15   0.350  -0.110        0
  6326  715-61-62       2   78   15   0.350  -0.110        0
  6327  715-66-35       2   78   15   0.350  -0.110        0
  6328  713-56-17       2   79   15  -0.270   0.110        0
  6329  713-66-35       2   79   15  -0.270   0.110        0
  6330  702-65-362      3   80   16  -0.500   0.090        0
  6331  702-71-365      3   80   16  -0.500   0.090        0
  6332  700-36-164      2   80   16  -0.310  -0.040        0
  6333  700-55-353      2   80   16  -0.310  -0.040        0
  6334  700-61-25       2   80   16  -0.310  -0.040        0
  6335  700-65-362      2   80   16  -0.310  -0.040        0
  6336  700-71-365      2   80   16  -0.310  -0.040        0
  6337  671-27-14       2   81   15   0.370   0.370        0
  6338  671-55-353      2   81   15   0.370   0.370        0
  6339  671-61-25       2   81   15   0.370   0.370        0
  6340  656-12-178      2   82   15  -0.130   0.040        0
  6341  656-56-17       2   82   15  -0.130   0.040        0
  6342  656-66-20       2   82   15  -0.130   0.040        0
  6343  656-71-365      2   82   15  -0.130   0.040        0
  6344  655-26-362      2   82   24   0.280   0.170        0
  6345  655-32-85       2   82   24   0.280   0.170        0
  6346  655-35-53       2   82   24   0.280   0.170        0
  6347  655-56-18       2   82   24   0.280   0.170        0
  6348  689-66-33       2   80   26   0.330  -0.430        0
  6349  688-71-365      2   80   25   0.370   0.340        0
  6350  682-56-18       2   81   25  -0.130  -0.110        0
  6351  636-56-18       2   83   19  -0.350  -0.250        0
  6352  636-61-62       2   83   19  -0.350  -0.250        0
  6353  636-66-20       2   83   19  -0.350  -0.250        0
  6354  648-71-365      3   82   18   0.380   0.170        0
  6355  601-48-348      2   84   19   0.250  -0.250        0
  6356  601-55-353      2   84   19   0.250  -0.250        0
  6357  601-61-34       2   84   19   0.250  -0.250        0
  6358  601-65-362      2   84   19   0.250  -0.250        0
  6359  601-71-365      2   84   19   0.250  -0.250        0
  6360  632-56-17       2   84   15  -0.290  -0.230        0
  6361  632-66-20       2   84   15  -0.290  -0.230        0
  6362  602-22-1        2   84   16   0.060   0.400        0
  6363  579-56-18       2   85   16  -0.370  -0.290        0
  6364  598-42-351      3   85   22  -0.430  -0.420        0
  6365  598-48-348      3   85   22  -0.430  -0.420        0
  6366  598-56-18       3   85   22  -0.430  -0.420        0
  6367  598-60-323      3   85   22  -0.430  -0.420        0
  6368  598-65-300      3   85   22  -0.430  -0.420        0
  6369  598-71-365      3   85   22  -0.430  -0.420        0
  6370  739-37-15       2   77   29   0.320   0.160        0
  6371  739-48-341      2   77   29   0.320   0.160        0
  6372  739-55-353      2   77   29   0.320   0.160        0
  6373  739-61-34       2   77   29   0.320   0.160        0
  6374  739-65-362      2   77   29   0.320   0.160        0
  6375  739-71-365      2   77   29   0.320   0.160        0
  6376  720-12-152      2   79   29  -0.460  -0.420        0
  6377  720-17-9        2   79   29  -0.460  -0.420        0
  6378  720-21-364      2   79   29  -0.460  -0.420        0
  6379  720-66-34       2   79   29  -0.460  -0.420        0
  6380  747-48-341      2   77   32   0.440  -0.030        0
  6381  747-55-346      2   77   32   0.440  -0.030        0
  6382  747-61-34       2   77   32   0.440  -0.030        0
  6383  747-65-362      2   77   32   0.440  -0.030        0
  6384  747-71-365      2   77   32   0.440  -0.030        0
  6385  717-27-13       2   79   60  -0.350   0.480        0
  6386  644-42-343      3   83   61  -0.480  -0.480        0
  6387  625-42-343     -2   84   61  -0.490  -0.480        0
  6388  620-42-343      3   84   60  -0.410  -0.490        0
  6389  634-35-29       3   83   56   0.320   0.440        0
  6390  634-42-322      3   83   56   0.320   0.440        0
  6391  554-42-350      3   85   56   0.460  -0.020        0
  6392  561-42-349      3   85   55   0.350   0.460        0
  6393  535-42-350      3   86   56   0.230  -0.410        0
  6394  577-22-34       3   85   58  -0.260   0.170        0
  6395  577-27-59       3   85   58  -0.260   0.170        0
  6396  577-31-339      3   85   58  -0.260   0.170        0
  6397  577-37-1        3   85   58  -0.260   0.170        0
  6398  577-42-343      3   85   58  -0.260   0.170        0
  6399  577-48-343      3   85   58  -0.260   0.170        0
  6400  577-56-16       3   85   58  -0.260   0.170        0
  6401  577-60-322      3   85   58  -0.260   0.170        0
  6402  577-65-302      3   85   58  -0.260   0.170        0
  6403  577-71-365      3   85   58  -0.260   0.170        0
  6404  581-1-365       2   85   60  -0.380   0.450        0
  6405  582-42-343     -2   85   61  -0.420  -0.480        0
  6406  582-56-16      -2   85   61  -0.420  -0.480        0
  6407  586-27-56      -2   85   60  -0.420  -0.300        0
  6408  586-37-316     -2   85   60  -0.420  -0.300        0
  6409  586-42-343     -2   85   60  -0.420  -0.300        0
  6410  586-56-16      -2   85   60  -0.420  -0.300        0
  6411  586-61-55      -2   85   60  -0.420  -0.300        0
  6412  586-66-46      -2   85   60  -0.420  -0.300        0
  6413  553-22-39      -2   85   60   0.460   0.090        0
  6414  553-26-299     -2   85   60   0.460   0.090        0
  6415  553-31-348     -2   85   60   0.460   0.090        0
  6416  553-36-21      -2   85   60   0.460   0.090        0
  6417  584-22-44       3   85   60  -0.420   0.420        0
  6418  584-27-56       3   85   60  -0.420   0.420        0
  6419  584-31-339      3   85   60  -0.420   0.420        0
  6420  584-37-1        3   85   60  -0.420   0.420        0
  6421  584-42-343      3   85   60  -0.420   0.420        0
  6422  584-56-16       3   85   60  -0.420   0.420        0
  6423  584-61-55       3   85   60  -0.420   0.420        0
  6424  584-66-46       3   85   60  -0.420   0.420        0
  6425  585-22-44       3   85   59  -0.420  -0.370        0
  6426  585-27-56       3   85   59  -0.420  -0.370        0
  6427  585-31-339      3   85   59  -0.420  -0.370        0
  6428  585-37-1        3   85   59  -0.420  -0.370        0
  6429  585-42-343      3   85   59  -0.420  -0.370        0
  6430  585-56-16       3   85   59  -0.420  -0.370        0
  6431  585-61-55       3   85   59  -0.420  -0.370        0
  6432  585-66-46       3   85   59  -0.420  -0.370        0
  6433  557-38-1       -2   85   60   0.420  -0.400        0
  6434  557-42-343     -2   85   60   0.420  -0.400        0
  6435  557-66-46      -2   85   60   0.420  -0.400        0
  6436  548-1-365       2   86   60  -0.230   0.420        0
  6437  575-17-55       3   85   62  -0.230   0.080        0
  6438  575-22-44       3   85   62  -0.230   0.080        0
  6439  575-26-299      3   85   62  -0.230   0.080        0
  6440  563-17-55      -2   85   62   0.310  -0.110        0
  6441  563-22-44      -2   85   62   0.310  -0.110        0
  6442  563-66-46      -2   85   62   0.310  -0.110        0
  6443  556-26-299      3   85   62   0.420  -0.240        0
  6444  556-31-335      3   85   62   0.420  -0.240        0
  6445  556-36-317      3   85   62   0.420  -0.240        0
  6446  556-56-10       3   85   62   0.420  -0.240        0
  6447  556-61-56       3   85   62   0.420  -0.240        0
  6448  556-66-34       3   85   62   0.420  -0.240        0
  6449  558-26-299     -2   85   62   0.390   0.470        0
  6450  558-31-317     -2   85   62   0.390   0.470        0
  6451  558-38-319     -2   85   62   0.390   0.470        0
  6452  572-1-365       2   85   61  -0.030  -0.220        0
  6453  543-1-365       1   86   61  -0.080  -0.220        0
  6454  529-48-336     -2   86   63   0.500  -0.490        0
  6455  529-56-10      -2   86   63   0.500  -0.490        0
  6456  529-61-56      -2   86   63   0.500  -0.490        0
  6457  529-66-34      -2   86   63   0.500  -0.490        0
  6458  798-1-365       1   75   62  -0.330  -0.120        0
  6459  794-1-77        1   75   61  -0.140  -0.090        0
  6460  772-3-59        1   76   62  -0.370   0.340        0
  6461  792-1-365       2   75   59  -0.060  -0.080        0
  6462  790-1-274       2   75   59  -0.440  -0.020        0
  6463  790-6-286       2   75   59  -0.440  -0.020        0
  6464  790-11-258      2   75   59  -0.440  -0.020        0
  6465  790-17-4        2   75   59  -0.440  -0.020        0
  6466  790-22-34       2   75   59  -0.440  -0.020        0
  6467  790-27-53       2   75   59  -0.440  -0.020        0
  6468  790-31-335      2   75   59  -0.440  -0.020        0
  6469  790-37-32       2   75   59  -0.440  -0.020        0
  6470  790-42-351      2   75   59  -0.440  -0.020        0
  6471  790-48-337      2   75   59  -0.440  -0.020        0
  6472  790-61-54       2   75   59  -0.440  -0.020        0
  6473  783-1-274       2   75   59   0.360   0.080        0
  6474  783-6-288       2   75   59   0.360   0.080        0
  6475  783-11-258      2   75   59   0.360   0.080        0
  6476  783-17-4        2   75   59   0.360   0.080        0
  6477  783-17-47       2   75   59   0.360   0.080        0
  6478  783-22-34       2   75   59   0.360   0.080        0
  6479  783-26-280      2   75   59   0.360   0.080        0
  6480  783-31-335      2   75   59   0.360   0.080        0
  6481  783-42-351      2   75   59   0.360   0.080        0
  6482  783-61-54       2   75   59   0.360   0.080        0
  6483  799-1-365       1   75   58  -0.330   0.360        0
  6484  774-65-357      1   75   64   0.470   0.200        0
  6485  774-71-362      1   75   64   0.470   0.200        0
  6486  751-1-365       1   77   64  -0.340  -0.360        0
  6487  746-22-38      -2   77   63  -0.340   0.220        0
  6488  746-26-280     -2   77   63  -0.340   0.220        0
  6489  746-32-41      -2   77   63  -0.340   0.220        0
  6490  746-48-362     -2   77   63  -0.340   0.220        0
  6491  746-56-9       -2   77   63  -0.340   0.220        0
  6492  746-61-47      -2   77   63  -0.340   0.220        0
  6493  746-65-357     -2   77   63  -0.340   0.220        0
  6494  746-71-362     -2   77   63  -0.340   0.220        0
  6495  745-1-55        1   77   63  -0.110   0.420        0
  6496  754-48-342      2   76   63   0.470  -0.070        0
  6497  754-56-18       2   76   63   0.470  -0.070        0
  6498  754-61-53       2   76   63   0.470  -0.070        0
  6499  754-66-32       2   76   63   0.470  -0.070        0
  6500  721-12-313      2   78   63   0.420   0.060        0
  6501  721-17-52       2   78   63   0.420   0.060        0
  6502  721-22-38       2   78   63   0.420   0.060        0
  6503  721-26-287      2   78   63   0.420   0.060        0
  6504  721-31-335      2   78   63   0.420   0.060        0
  6505  721-36-318      2   78   63   0.420   0.060        0
  6506  721-42-350      2   78   63   0.420   0.060        0
  6507  721-48-343      2   78   63   0.420   0.060        0
  6508  721-56-19       2   78   63   0.420   0.060        0
  6509  721-61-55       2   78   63   0.420   0.060        0
  6510  721-66-46       2   78   63   0.420   0.060        0
  6511  729-43-4       -2   78   64   0.080  -0.360        0
  6512  729-48-362     -2   78   64   0.080  -0.360        0
  6513  729-56-9       -2   78   64   0.080  -0.360        0
  6514  729-66-1       -2   78   64   0.080  -0.360        0
  6515  729-71-362     -2   78   64   0.080  -0.360        0
  6516  706-17-52      -2   79   65   0.380  -0.480        0
  6517  706-22-37      -2   79   65   0.380  -0.480        0
  6518  706-27-62      -2   79   65   0.380  -0.480        0
  6519  706-31-335     -2   79   65   0.380  -0.480        0
  6520  706-43-4       -2   79   65   0.380  -0.480        0
  6521  706-48-362     -2   79   65   0.380  -0.480        0
  6522  706-56-9       -2   79   65   0.380  -0.480        0
  6523  706-61-47      -2   79   65   0.380  -0.480        0
  6524  706-65-357     -2   79   65   0.380  -0.480        0
  6525  706-71-362     -2   79   65   0.380  -0.480        0
  6526  694-17-52       1   80   66  -0.050   0.380        0
  6527  694-22-38       1   80   66  -0.050   0.380        0
  6528  694-26-285      1   80   66  -0.050   0.380        0
  6529  694-31-344      1   80   66  -0.050   0.380        0
  6530  694-36-354      1   80   66  -0.050   0.380        0
  6531  694-43-4        1   80   66  -0.050   0.380        0
  6532  694-48-362      1   80   66  -0.050   0.380        0
  6533  694-56-9        1   80   66  -0.050   0.380        0
  6534  694-61-47       1   80   66  -0.050   0.380        0
  6535  694-65-357      1   80   66  -0.050   0.380        0
  6536  694-71-362      1   80   66  -0.050   0.380        0
  6537  716-1-365       1   79   64  -0.350   0.070        0
  6538  719-12-121     -2   79   63  -0.430  -0.140        0
  6539  708-8-302      -2   79   63   0.380   0.190        0
  6540  708-12-64      -2   79   63   0.380   0.190        0
  6541  708-17-3       -2   79   63   0.380   0.190        0
  6542  708-22-38      -2   79   63   0.380   0.190        0
  6543  708-26-287     -2   79   63   0.380   0.190        0
  6544  708-31-335     -2   79   63   0.380   0.190        0
  6545  708-42-350     -2   79   63   0.380   0.190        0
  6546  708-48-343     -2   79   63   0.380   0.190        0
  6547  685-1-365       1   81   64  -0.280   0.260        0
  6548  674-22-38      -2   81   64   0.410  -0.220        0
  6549  674-31-344     -2   81   64   0.410  -0.220        0
  6550  674-42-350     -2   81   64   0.410  -0.220        0
  6551  674-48-343     -2   81   64   0.410  -0.220        0
  6552  674-56-19      -2   81   64   0.410  -0.220        0
  6553  674-61-60      -2   81   64   0.410  -0.220        0
  6554  674-66-48      -2   81   64   0.410  -0.220        0
  6555  676-27-10      -2   81   64   0.290   0.400        0
  6556  687-17-3       -2   81   63  -0.440  -0.140        0
  6557  687-22-38      -2   81   63  -0.440  -0.140        0
  6558  687-27-11      -2   81   63  -0.440  -0.140        0
  6559  687-42-350     -2   81   63  -0.440  -0.140        0
  6560  687-48-343     -2   81   63  -0.440  -0.140        0
  6561  687-56-19      -2   81   63  -0.440  -0.140        0
  6562  687-61-55      -2   81   63  -0.440  -0.140        0
  6563  687-66-46      -2   81   63  -0.440  -0.140        0
  6564  686-56-19      -3   81   63  -0.400  -0.140        0
  6565  686-66-46      -3   81   63  -0.400  -0.140        0
  6566  677-17-53       2   81   63   0.140  -0.430        0
  6567  677-22-38       2   81   63   0.140  -0.430        0
  6568  677-26-299      2   81   63   0.140  -0.430        0
  6569  677-31-337      2   81   63   0.140  -0.430        0
  6570  677-37-336      2   81   63   0.140  -0.430        0
  6571  677-42-350      2   81   63   0.140  -0.430        0
  6572  677-48-343      2   81   63   0.140  -0.430        0
  6573  677-56-19       2   81   63   0.140  -0.430        0
  6574  677-61-55       2   81   63   0.140  -0.430        0
  6575  677-66-46       2   81   63   0.140  -0.430        0
  6576  675-5-102       1   81   63   0.410  -0.100        0
  6577  675-11-305      1   81   63   0.410  -0.100        0
  6578  675-27-11       1   81   63   0.410  -0.100        0
  6579  665-17-53       1   82   63  -0.130  -0.040        0
  6580  665-22-38       1   82   63  -0.130  -0.040        0
  6581  665-27-11       1   82   63  -0.130  -0.040        0
  6582  665-36-357      1   82   63  -0.130  -0.040        0
  6583  665-42-350      1   82   63  -0.130  -0.040        0
  6584  665-56-19       1   82   63  -0.130  -0.040        0
  6585  665-61-55       1   82   63  -0.130  -0.040        0
  6586  665-66-46       1   82   63  -0.130  -0.040        0
  6587  657-48-343      1   82   63   0.170  -0.200        0
  6588  649-3-294       2   82   63   0.440  -0.040        0
  6589  649-6-290       2   82   63   0.440  -0.040        0
  6590  649-11-307      2   82   63   0.440  -0.040        0
  6591  649-17-3        2   82   63   0.440  -0.040        0
  6592  649-22-38       2   82   63   0.440  -0.040        0
  6593  649-26-287      2   82   63   0.440  -0.040        0
  6594  649-31-335      2   82   63   0.440  -0.040        0
  6595  649-38-60       2   82   63   0.440  -0.040        0
  6596  649-42-350      2   82   63   0.440  -0.040        0
  6597  649-48-343      2   82   63   0.440  -0.040        0
  6598  649-56-19       2   82   63   0.440  -0.040        0
  6599  649-61-55       2   82   63   0.440  -0.040        0
  6600  651-3-294       1   82   64   0.440  -0.420        0
  6601  651-6-290       1   82   64   0.440  -0.420        0
  6602  651-11-307      1   82   64   0.440  -0.420        0
  6603  651-17-52       1   82   64   0.440  -0.420        0
  6604  651-27-11       1   82   64   0.440  -0.420        0
  6605  651-42-350      1   82   64   0.440  -0.420        0
  6606  651-48-343      1   82   64   0.440  -0.420        0
  6607  651-56-19       1   82   64   0.440  -0.420        0
  6608  651-61-60       1   82   64   0.440  -0.420        0
  6609  651-66-46       1   82   64   0.440  -0.420        0
  6610  679-17-52      -2   81   66   0.020  -0.500        0
  6611  679-22-37      -2   81   66   0.020  -0.500        0
  6612  679-26-336     -2   81   66   0.020  -0.500        0
  6613  679-48-362     -2   81   66   0.020  -0.500        0
  6614  679-56-9       -2   81   66   0.020  -0.500        0
  6615  679-61-47      -2   81   66   0.020  -0.500        0
  6616  679-65-357     -2   81   66   0.020  -0.500        0
  6617  679-71-362     -2   81   66   0.020  -0.500        0
  6618  680-17-52      -2   81   66  -0.020   0.380        0
  6619  680-22-82      -2   81   66  -0.020   0.380        0
  6620  680-27-62      -2   81   66  -0.020   0.380        0
  6621  680-31-335     -2   81   66  -0.020   0.380        0
  6622  680-39-60      -2   81   66  -0.020   0.380        0
  6623  680-43-4       -2   81   66  -0.020   0.380        0
  6624  680-48-362     -2   81   66  -0.020   0.380        0
  6625  680-56-9       -2   81   66  -0.020   0.380        0
  6626  680-61-47      -2   81   66  -0.020   0.380        0
  6627  680-65-357     -2   81   66  -0.020   0.380        0
  6628  680-71-362     -2   81   66  -0.020   0.380        0
  6629  684-17-52      -2   81   65  -0.280  -0.440        0
  6630  684-22-37      -2   81   65  -0.280  -0.440        0
  6631  684-26-349     -2   81   65  -0.280  -0.440        0
  6632  684-31-335     -2   81   65  -0.280  -0.440        0
  6633  684-48-362     -2   81   65  -0.280  -0.440        0
  6634  684-56-9       -2   81   65  -0.280  -0.440        0
  6635  684-66-1       -2   81   65  -0.280  -0.440        0
  6636  684-71-362     -2   81   65  -0.280  -0.440        0
  6637  664-1-365       1   82   65  -0.140  -0.380        0
  6638  654-12-67      -2   82   65   0.320  -0.310        0
  6639  654-17-52      -2   82   65   0.320  -0.310        0
  6640  654-22-37      -2   82   65   0.320  -0.310        0
  6641  654-26-285     -2   82   65   0.320  -0.310        0
  6642  654-31-335     -2   82   65   0.320  -0.310        0
  6643  654-38-32      -2   82   65   0.320  -0.310        0
  6644  654-42-349     -2   82   65   0.320  -0.310        0
  6645  654-48-343     -2   82   65   0.320  -0.310        0
  6646  654-56-19      -2   82   65   0.320  -0.310        0
  6647  654-61-60      -2   82   65   0.320  -0.310        0
  6648  654-66-49      -2   82   65   0.320  -0.310        0
  6649  658-32-41       2   82   67   0.130  -0.420        0
  6650  658-36-357      2   82   67   0.130  -0.420        0
  6651  658-43-4        2   82   67   0.130  -0.420        0
  6652  658-48-362      2   82   67   0.130  -0.420        0
  6653  658-56-9        2   82   67   0.130  -0.420        0
  6654  658-61-47       2   82   67   0.130  -0.420        0
  6655  658-65-357      2   82   67   0.130  -0.420        0
  6656  658-71-362      2   82   67   0.130  -0.420        0
  6657  673-35-360     -2   81   67   0.440   0.490        0
  6658  673-56-9       -2   81   67   0.440   0.490        0
  6659  673-61-47      -2   81   67   0.440   0.490        0
  6660  673-65-357     -2   81   67   0.440   0.490        0
  6661  673-70-334     -2   81   67   0.440   0.490        0
  6662  673-71-362     -2   81   67   0.440   0.490        0
  6663  653-32-41      -2   82   68   0.320  -0.050        0
  6664  653-39-32      -2   82   68   0.320  -0.050        0
  6665  653-43-4       -2   82   68   0.320  -0.050        0
  6666  653-48-362     -2   82   68   0.320  -0.050        0
  6667  653-56-9       -2   82   68   0.320  -0.050        0
  6668  653-61-47      -2   82   68   0.320  -0.050        0
  6669  653-65-357     -2   82   68   0.320  -0.050        0
  6670  653-71-362     -2   82   68   0.320  -0.050        0
  6671  642-36-352      2   83   74  -0.420   0.470        0
  6672  642-43-4        2   83   74  -0.420   0.470        0
  6673  642-48-362      2   83   74  -0.420   0.470        0
  6674  642-56-9        2   83   74  -0.420   0.470        0
  6675  642-61-47       2   83   74  -0.420   0.470        0
  6676  642-65-357      2   83   74  -0.420   0.470        0
  6677  642-71-362      2   83   74  -0.420   0.470        0
  6678  637-26-295     -2   82   73   0.470  -0.390        0
  6679  637-31-349     -2   82   73   0.470  -0.390        0
  6680  637-36-352     -2   82   73   0.470  -0.390        0
  6681  637-43-4       -2   82   73   0.470  -0.390        0
  6682  637-48-362     -2   82   73   0.470  -0.390        0
  6683  637-56-9       -2   82   73   0.470  -0.390        0
  6684  637-61-47      -2   82   73   0.470  -0.390        0
  6685  637-65-357     -2   82   73   0.470  -0.390        0
  6686  637-71-362     -2   82   73   0.470  -0.390        0
  6687  624-7-99        1   84   73  -0.460  -0.130        0
  6688  624-12-103      1   84   73  -0.460  -0.130        0
  6689  624-17-52       1   84   73  -0.460  -0.130        0
  6690  624-22-39       1   84   73  -0.460  -0.130        0
  6691  624-27-5        1   84   73  -0.460  -0.130        0
  6692  624-32-1        1   84   73  -0.460  -0.130        0
  6693  595-37-32      -3   84   73   0.380  -0.160        0
  6694  595-43-4       -3   84   73   0.380  -0.160        0
  6695  595-48-362     -3   84   73   0.380  -0.160        0
  6696  595-56-9       -3   84   73   0.380  -0.160        0
  6697  595-61-47      -2   84   73   0.380  -0.160        0
  6698  595-65-357     -3   84   73   0.380  -0.160        0
  6699  595-71-362     -3   84   73   0.380  -0.160        0
  6700  604-31-323     -2   84   74   0.270   0.210        0
  6701  604-37-32      -2   84   74   0.270   0.210        0
  6702  604-43-4       -2   84   74   0.270   0.210        0
  6703  604-48-362     -2   84   74   0.270   0.210        0
  6704  604-56-9       -2   84   74   0.270   0.210        0
  6705  604-61-47      -2   84   74   0.270   0.210        0
  6706  604-65-357     -2   84   74   0.270   0.210        0
  6707  604-71-362     -2   84   74   0.270   0.210        0
  6708  596-36-352     -2   84   71   0.390  -0.470        0
  6709  596-43-4       -2   84   71   0.390  -0.470        0
  6710  596-48-362     -2   84   71   0.390  -0.470        0
  6711  596-56-9       -2   84   71   0.390  -0.470        0
  6712  596-61-47      -2   84   71   0.390  -0.470        0
  6713  596-65-357     -2   84   71   0.390  -0.470        0
  6714  596-71-362     -2   84   71   0.390  -0.470        0
  6715  609-43-4       -2   84   67   0.040  -0.390        0
  6716  609-56-9       -2   84   67   0.040  -0.390        0
  6717  609-61-47      -2   84   67   0.040  -0.390        0
  6718  609-65-357     -2   84   67   0.040  -0.390        0
  6719  609-71-362     -2   84   67   0.040  -0.390        0
  6720  639-27-10       1   83   65  -0.100   0.470        0
  6721  639-66-49       1   83   65  -0.100   0.470        0
  6722  626-27-10       1   83   66   0.470  -0.330        0
  6723  626-42-349      1   83   66   0.470  -0.330        0
  6724  626-48-343      1   83   66   0.470  -0.330        0
  6725  626-56-19       1   83   66   0.470  -0.330        0
  6726  626-61-60       1   83   66   0.470  -0.330        0
  6727  626-66-49       1   83   66   0.470  -0.330        0
  6728  635-17-52       1   83   66   0.090   0.320        0
  6729  635-22-38       1   83   66   0.090   0.320        0
  6730  635-26-280      1   83   66   0.090   0.320        0
  6731  635-42-349      1   83   66   0.090   0.320        0
  6732  635-48-343      1   83   66   0.090   0.320        0
  6733  635-56-19       1   83   66   0.090   0.320        0
  6734  635-61-60       1   83   66   0.090   0.320        0
  6735  635-66-49       1   83   66   0.090   0.320        0
  6736  629-11-307      1   83   64   0.400   0.460        0
  6737  629-16-364      1   83   64   0.400   0.460        0
  6738  629-21-332      1   83   64   0.400   0.460        0
  6739  629-26-287      1   83   64   0.400   0.460        0
  6740  629-31-335      1   83   64   0.400   0.460        0
  6741  629-37-32       1   83   64   0.400   0.460        0
  6742  629-48-343      1   83   64   0.400   0.460        0
  6743  629-56-23       1   83   64   0.400   0.460        0
  6744  629-61-60       1   83   64   0.400   0.460        0
  6745  629-66-46       1   83   64   0.400   0.460        0
  6746  628-11-307      2   83   65   0.390   0.110        0
  6747  628-17-52       2   83   65   0.390   0.110        0
  6748  628-36-356      2   83   65   0.390   0.110        0
  6749  628-42-349      2   83   65   0.390   0.110        0
  6750  628-48-343      2   83   65   0.390   0.110        0
  6751  628-56-19       2   83   65   0.390   0.110        0
  6752  628-61-60       2   83   65   0.390   0.110        0
  6753  628-66-46       2   83   65   0.390   0.110        0
  6754  630-12-310     -2   83   64   0.400  -0.420        0
  6755  630-17-3       -2   83   64   0.400  -0.420        0
  6756  630-22-38      -2   83   64   0.400  -0.420        0
  6757  630-27-11      -2   83   64   0.400  -0.420        0
  6758  630-36-357     -2   83   64   0.400  -0.420        0
  6759  630-42-350     -2   83   64   0.400  -0.420        0
  6760  630-48-343     -2   83   64   0.400  -0.420        0
  6761  630-56-19      -2   83   64   0.400  -0.420        0
  6762  630-61-60      -2   83   64   0.400  -0.420        0
  6763  630-66-46      -2   83   64   0.400  -0.420        0
  6764  631-17-3       -2   84   63  -0.490  -0.460        0
  6765  631-22-32      -2   84   63  -0.490  -0.460        0
  6766  631-26-289     -2   84   63  -0.490  -0.460        0
  6767  631-31-335     -2   84   63  -0.490  -0.460        0
  6768  631-33-335     -2   84   63  -0.490  -0.460        0
  6769  631-42-350      2   84   63  -0.490  -0.460        0
  6770  631-48-343      2   84   63  -0.490  -0.460        0
  6771  631-56-19       2   84   63  -0.490  -0.460        0
  6772  631-61-55       2   84   63  -0.490  -0.460        0
  6773  631-66-46       2   84   63  -0.490  -0.460        0
  6774  593-27-11       2   84   63   0.430  -0.400        0
  6775  593-61-55       2   84   63   0.430  -0.400        0
  6776  593-66-46       2   84   63   0.430  -0.400        0
  6777  592-1-365       2   84   63   0.430  -0.140        0
  6778  587-7-101      -3   85   63  -0.490  -0.070        0
  6779  587-11-307     -3   85   63  -0.490  -0.070        0
  6780  587-17-53      -3   85   63  -0.490  -0.070        0
  6781  587-26-287     -3   85   63  -0.490  -0.070        0
  6782  587-31-335     -3   85   63  -0.490  -0.070        0
  6783  587-38-60      -2   85   63  -0.490  -0.070        0
  6784  587-42-350     -2   85   63  -0.490  -0.070        0
  6785  587-48-343     -2   85   63  -0.490  -0.070        0
  6786  587-56-19      -2   85   63  -0.490  -0.070        0
  6787  587-61-55       3   85   63  -0.490  -0.070        0
  6788  587-66-46       3   85   63  -0.490  -0.070        0
  6789  591-11-333      2   84   63   0.430   0.130        0
  6790  591-17-53       2   84   63   0.430   0.130        0
  6791  591-42-350      2   84   63   0.430   0.130        0
  6792  597-6-79        2   84   64   0.390  -0.420        0
  6793  597-11-307      2   84   64   0.390  -0.420        0
  6794  597-17-53       2   84   64   0.390  -0.420        0
  6795  597-26-287      2   84   64   0.390  -0.420        0
  6796  597-42-350      2   84   64   0.390  -0.420        0
  6797  597-48-343      2   84   64   0.390  -0.420        0
  6798  597-56-19       2   84   64   0.390  -0.420        0
  6799  597-61-60       2   84   64   0.390  -0.420        0
  6800  597-66-46       2   84   64   0.390  -0.420        0
  6801  607-42-349      1   84   64   0.120   0.430        0
  6802  607-48-343      1   84   64   0.120   0.430        0
  6803  607-56-23       1   84   64   0.120   0.430        0
  6804  607-61-60       1   84   64   0.120   0.430        0
  6805  607-66-46       1   84   64   0.120   0.430        0
  6806  568-48-343     -2   85   64   0.040   0.360        0
  6807  568-56-10      -2   85   64   0.040   0.360        0
  6808  568-61-61      -2   85   64   0.040   0.360        0
  6809  560-1-358      -2   85   64   0.270  -0.030        0
  6810  560-6-340      -2   85   64   0.270  -0.030        0
  6811  560-10-349     -2   85   64   0.270  -0.030        0
  6812  545-38-6       -3   86   63  -0.420  -0.270        0
  6813  545-42-356     -3   86   63  -0.420  -0.270        0
  6814  538-1-365      -2   86   63   0.110   0.390        0
  6815  517-7-49        2   86   63   0.150  -0.130        0
  6816  574-56-24       2   85   66  -0.150  -0.200        0
  6817  574-61-61       2   85   66  -0.150  -0.200        0
  6818  574-66-33       2   85   66  -0.150  -0.200        0
  6819  580-1-365       1   85   66  -0.340  -0.170        0
  6820  555-8-357       1   85   65   0.420   0.470        0
  6821  555-12-67       1   85   65   0.420   0.470        0
  6822  555-27-10       1   85   65   0.420   0.470        0
  6823  555-31-335      1   85   65   0.420   0.470        0
  6824  555-38-60       1   85   65   0.420   0.470        0
  6825  555-56-24       1   85   65   0.420   0.470        0
  6826  555-61-60       1   85   65   0.420   0.470        0
  6827  555-66-33       1   85   65   0.420   0.470        0
  6828  547-1-365       1   86   65  -0.230   0.280        0
  6829  546-27-10       2   86   65  -0.160   0.080        0
  6830  539-56-10       2   86   65   0.070   0.340        0
  6831  539-61-60       2   86   65   0.070   0.340        0
  6832  539-66-33       2   86   65   0.070   0.340        0
  6833  573-48-362      2   85   68   0.340  -0.370        0
  6834  573-56-9        2   85   68   0.340  -0.370        0
  6835  573-71-362      2   85   68   0.340  -0.370        0
  6836  808-48-335      1   74   73   0.280   0.250        0
  6837  808-66-33       1   74   73   0.280   0.250        0
  6838  808-71-61       1   74   73   0.280   0.250        0
  6839  807-26-349      2   74   67   0.330   0.420        0
  6840  807-43-4        2   74   67   0.330   0.420        0
  6841  807-48-341      2   74   67   0.330   0.420        0
  6842  805-56-9        1   74   67   0.360   0.450        0
  6843  807-56-9        2   74   67   0.330   0.420        0
  6844  807-61-47       2   74   67   0.330   0.420        0
  6845  805-65-357      1   74   67   0.360   0.450        0
  6846  807-65-357      2   74   67   0.330   0.420        0
  6847  805-71-362      1   74   67   0.360   0.450        0
  6848  807-71-362      2   74   67   0.330   0.420        0
  6849  810-43-4        2   74   63   0.250  -0.200        0
  6850  810-48-362      2   74   63   0.250  -0.200        0
  6851  810-61-47       2   74   63   0.250  -0.200        0
  6852  810-65-357      2   74   63   0.250  -0.200        0
  6853  810-71-362      2   74   63   0.250  -0.200        0
  6854  767-48-335      1   76   73  -0.190  -0.490        0
  6855  761-31-335      1   76   65  -0.260   0.080        0
  6856  761-37-320      1   76   65  -0.260   0.080        0
  6857  761-42-355      1   76   65  -0.260   0.080        0
  6858  761-48-342      1   76   65  -0.260   0.080        0
  6859  761-56-18       1   76   65  -0.260   0.080        0
  6860  761-61-54       1   76   65  -0.260   0.080        0
  6861  761-66-33       1   76   65  -0.260   0.080        0
  6862  763-42-355      1   76   66   0.090   0.090        0
  6863  763-48-342      1   76   66   0.090   0.090        0
  6864  763-56-18       1   76   66   0.090   0.090        0
  6865  763-61-56       1   76   66   0.090   0.090        0
  6866  763-66-33       1   76   66   0.090   0.090        0
  6867  802-56-9        2   75   64  -0.480  -0.230        0
  6868  802-61-47       2   75   64  -0.480  -0.230        0
  6869  802-65-357      2   75   64  -0.480  -0.230        0
  6870  802-71-362      2   75   64  -0.480  -0.230        0
  6871  781-61-54       1   75   63   0.400   0.380        0
  6872  781-66-33       1   75   63   0.400   0.380        0
  6873  775-56-27       1   75   63   0.440   0.380        0
  6874  775-61-54       1   75   63   0.440   0.380        0
  6875  775-66-33       1   75   63   0.440   0.380        0
  6876  786-66-33       2   75   63   0.320   0.380        0
  6877  782-26-336      2   75   63   0.440  -0.110        0
  6878  782-31-335      2   75   63   0.440  -0.110        0
  6879  782-43-4        2   75   63   0.440  -0.110        0
  6880  782-48-362      2   75   63   0.440  -0.110        0
  6881  782-56-9        2   75   63   0.440  -0.110        0
  6882  782-61-47       2   75   63   0.440  -0.110        0
  6883  782-65-357      2   75   63   0.440  -0.110        0
  6884  782-71-362      2   75   63   0.440  -0.110        0
  6885  755-27-12       1   76   63   0.430  -0.070        0
  6886  755-31-348      1   76   63   0.430  -0.070        0
  6887  755-37-26       1   76   63   0.430  -0.070        0
  6888  755-42-357      1   76   63   0.430  -0.070        0
  6889  755-48-342      1   76   63   0.430  -0.070        0
  6890  755-56-18       1   76   63   0.430  -0.070        0
  6891  755-60-320      1   76   63   0.430  -0.070        0
  6892  755-65-298      1   76   63   0.430  -0.070        0
  6893  755-71-365      1   76   63   0.430  -0.070        0
  6894  776-42-354     -2   75   86   0.290  -0.360        0
  6895  776-48-335     -2   75   86   0.290  -0.360        0
  6896  776-56-17      -2   75   86   0.290  -0.360        0
  6897  776-61-53      -2   75   86   0.290  -0.360        0
  6898  785-32-62       2   75   80   0.460   0.260        0
  6899  785-37-32       2   75   80   0.460   0.260        0
  6900  785-48-334      2   75   80   0.460   0.260        0
  6901  785-56-19       2   75   80   0.460   0.260        0
  6902  785-66-33       2   75   80   0.460   0.260        0
  6903  784-32-62       2   75   80   0.490   0.360        0
  6904  784-66-33       2   75   80   0.490   0.360        0
  6905  777-32-6        1   75   77   0.270  -0.450        0
  6906  777-37-32       1   75   77   0.270  -0.450        0
  6907  777-42-355      1   75   77   0.270  -0.450        0
  6908  777-48-334      1   75   77   0.270  -0.450        0
  6909  777-56-18       1   75   77   0.270  -0.450        0
  6910  778-42-355      2   75   77   0.270  -0.450        0
  6911  778-48-334      2   75   77   0.270  -0.450        0
  6912  778-56-18       2   75   77   0.270  -0.450        0
  6913  778-60-321      2   75   77   0.270  -0.450        0
  6914  778-65-299      2   75   77   0.270  -0.450        0
  6915  778-71-365      2   75   77   0.270  -0.450        0
  6916  779-42-355      2   75   77   0.270  -0.450        0
  6917  779-48-334      2   75   77   0.270  -0.450        0
  6918  779-56-18       2   75   77   0.270  -0.450        0
  6919  779-60-321      2   75   77   0.270  -0.450        0
  6920  779-65-299      2   75   77   0.270  -0.450        0
  6921  779-71-365      2   75   77   0.270  -0.450        0
  6922  801-36-310      2   74   75   0.390  -0.350        0
  6923  797-65-356      2   75   75  -0.340  -0.280        0
  6924  797-71-362      2   75   75  -0.340  -0.280        0
  6925  768-42-355      1   76   75  -0.230  -0.440        0
  6926  768-48-335      1   76   75  -0.230  -0.440        0
  6927  732-36-316     -3   78   77  -0.160  -0.390        0
  6928  765-32-6        2   76   79   0.030  -0.430        0
  6929  765-42-355      2   76   79   0.030  -0.430        0
  6930  765-48-348      2   76   79   0.030  -0.430        0
  6931  765-56-11       2   76   79   0.030  -0.430        0
  6932  765-61-48       2   76   79   0.030  -0.430        0
  6933  765-65-356      2   76   79   0.030  -0.430        0
  6934  765-71-362      2   76   79   0.030  -0.430        0
  6935  718-37-32      -2   79   84  -0.450  -0.470        0
  6936  718-48-334     -2   79   84  -0.450  -0.470        0
  6937  718-56-16      -2   79   84  -0.450  -0.470        0
  6938  718-61-53      -2   79   84  -0.450  -0.470        0
  6939  718-66-32      -2   79   84  -0.450  -0.470        0
  6940  718-71-60      -2   79   84  -0.450  -0.470        0
  6941  728-7-85        1   78   76   0.260   0.000        0
  6942  728-12-124      1   78   76   0.260   0.000        0
  6943  728-17-78       1   78   76   0.260   0.000        0
  6944  728-27-5        1   78   76   0.260   0.000        0
  6945  728-32-6        1   78   76   0.260   0.000        0
  6946  728-37-32       1   78   76   0.260   0.000        0
  6947  728-42-355      1   78   76   0.260   0.000        0
  6948  728-48-334      1   78   76   0.260   0.000        0
  6949  728-56-18       1   78   76   0.260   0.000        0
  6950  681-7-358       2   81   81  -0.070  -0.370        0
  6951  681-12-103      2   81   81  -0.070  -0.370        0
  6952  681-17-78       2   81   81  -0.070  -0.370        0
  6953  681-32-61       2   81   81  -0.070  -0.370        0
  6954  681-37-32       2   81   81  -0.070  -0.370        0
  6955  662-71-365      3   82   84  -0.080   0.280        0
  6956  616-42-355      2   84   81  -0.130  -0.330        0
  6957  616-56-16       2   84   81  -0.130  -0.330        0
  6958  825-71-62       2   74   92  -0.230  -0.090        0
  6959  608-32-62      -2   84   82   0.020   0.400        0
  6960  608-48-348     -2   84   82   0.020   0.400        0
  6961  608-56-11      -2   84   82   0.020   0.400        0
  6962  608-61-41      -2   84   82   0.020   0.400        0
  6963  608-65-355     -2   84   82   0.020   0.400        0
  6964  608-71-365     -2   84   82   0.020   0.400        0
  6965  559-8-73        2   85   85   0.320   0.460        0
  6966  559-12-60       2   85   85   0.320   0.460        0
  6967  559-17-78       2   85   85   0.320   0.460        0
  6968  559-32-62       2   85   85   0.320   0.460        0
  6969  559-36-335      2   85   85   0.320   0.460        0
  6970  806-71-62       2   74   92   0.280  -0.030        0
  6971  771-43-68       3   76   92  -0.420  -0.200        0
  6972  764-43-68       3   76   90   0.010   0.040        0
  6973  764-48-342      3   76   90   0.010   0.040        0
  6974  764-56-17       3   76   90   0.010   0.040        0
  6975  764-61-60       3   76   90   0.010   0.040        0
  6976  764-66-19       3   76   90   0.010   0.040        0
  6977  764-71-63       3   76   90   0.010   0.040        0
  6978  731-32-61       3   78   92  -0.160  -0.130        0
  6979  731-42-355      3   78   92  -0.160  -0.130        0
  6980  730-48-342      3   78   92  -0.010  -0.100        0
  6981  730-56-17       3   78   92  -0.010  -0.100        0
  6982  730-60-320      3   78   92  -0.010  -0.100        0
  6983  730-71-365      3   78   92  -0.040  -0.060        0
  6984  725-48-343      3   78   92   0.190  -0.200        0
  6985  725-56-16       3   78   92   0.190  -0.200        0
  6986  725-61-59       3   78   92   0.190  -0.200        0
  6987  725-66-19       3   78   92   0.190  -0.200        0
  6988  725-71-63       3   78   92   0.190  -0.200        0
  6989  683-7-360       3   81   91  -0.250   0.160        0
  6990  683-12-102      3   81   91  -0.250   0.160        0
  6991  683-17-78       3   81   91  -0.250   0.160        0
  6992  683-32-61       3   81   91  -0.250   0.160        0
  6993  683-37-32       3   81   91  -0.250   0.160        0
  6994  683-48-342      3   81   91  -0.250   0.160        0
  6995  528-56-10      -3   86   63   0.500  -0.460        0
  6996  528-61-56      -3   86   63   0.500  -0.460        0
  6997  528-66-34      -3   86   63   0.500  -0.460        0
  6998  532-56-10       2   86   62   0.420  -0.050        0
  6999  532-61-56       2   86   62   0.420  -0.050        0
  7000  523-42-363      3   86   62   0.500  -0.280        0
  7001  523-48-343      3   86   62   0.500  -0.280        0
  7002  523-56-10       3   86   62   0.500  -0.280        0
  7003  523-61-56       3   86   62   0.500  -0.280        0
  7004  506-31-282      3   87   62   0.450  -0.280        0
  7005  506-56-10       3   87   62   0.450  -0.280        0
  7006  506-60-321      3   87   62   0.450  -0.280        0
  7007  516-56-10      -2   87   61   0.030   0.070        0
  7008  516-61-56      -2   87   61   0.030   0.070        0
  7009  507-17-55      -3   87   61   0.450   0.100        0
  7010  507-22-40      -3   87   61   0.450   0.100        0
  7011  507-26-299     -3   87   61   0.450   0.100        0
  7012  507-31-335     -2   87   61   0.450   0.100        0
  7013  507-48-343     -2   87   61   0.450   0.100        0
  7014  507-56-10      -2   87   61   0.450   0.100        0
  7015  496-17-55       2   88   61   0.370   0.100        0
  7016  496-22-40       2   88   61   0.370   0.100        0
  7017  496-31-335      2   88   61   0.370   0.100        0
  7018  492-56-10       3   88   61   0.410   0.400        0
  7019  492-61-60       3   88   61   0.410   0.400        0
  7020  492-66-31       3   88   61   0.410   0.400        0
  7021  466-56-10       3   90   61  -0.060  -0.380        0
  7022  466-61-60       3   90   61  -0.060  -0.380        0
  7023  466-66-34       3   90   61  -0.060  -0.380        0
  7024  462-56-10       3   90   60   0.090   0.160        0
  7025  462-61-60       3   90   60   0.090   0.160        0
  7026  462-66-34       3   90   60   0.090   0.160        0
  7027  476-56-10       3   89   62   0.400  -0.010        0
  7028  476-61-60       3   89   62   0.400  -0.010        0
  7029  465-56-10      -2   90   61  -0.060  -0.350        0
  7030  465-61-60      -2   90   61  -0.060  -0.350        0
  7031  465-66-34      -2   90   61  -0.060  -0.350        0
  7032  460-1-365       1   90   62   0.280   0.280        0
  7033  458-38-7        3   91   62  -0.490  -0.440        0
  7034  458-48-336      3   91   62  -0.490  -0.440        0
  7035  458-56-10       3   91   62  -0.490  -0.440        0
  7036  458-61-60       3   91   62  -0.490  -0.440        0
  7037  458-66-54       3   91   62  -0.490  -0.440        0
  7038  458-71-34       3   91   62  -0.490  -0.440        0
  7039  440-38-6       -2   91   62   0.130   0.020        0
  7040  440-42-356     -2   91   62   0.130   0.020        0
  7041  440-48-337     -2   91   62   0.130   0.020        0
  7042  443-1-365       1   91   61  -0.100   0.430        0
  7043  439-1-358       1   91   61   0.280   0.300        0
  7044  439-4-350       1   91   61   0.280   0.300        0
  7045  449-10-89       2   91   60  -0.330   0.390        0
  7046  418-48-342      3   93   56   0.040  -0.210        0
  7047  418-56-18       3   93   56   0.040  -0.210        0
  7048  415-48-342      3   93   57   0.310  -0.490        0
  7049  415-56-18       3   93   57   0.310  -0.490        0
  7050  421-34-313      3   93   58  -0.380   0.400        0
  7051  421-48-343      3   93   58  -0.380   0.400        0
  7052  421-56-12       3   93   58  -0.380   0.400        0
  7053  421-61-60       3   93   58  -0.380   0.400        0
  7054  417-34-60       3   93   58   0.080  -0.220        0
  7055  412-6-290      -2   93   62   0.460  -0.440        0
  7056  412-10-297     -2   93   62   0.460  -0.440        0
  7057  412-17-4       -2   93   62   0.460  -0.440        0
  7058  412-27-12      -2   93   62   0.460  -0.440        0
  7059  412-38-6        2   93   62   0.460  -0.440        0
  7060  412-42-356      2   93   62   0.460  -0.440        0
  7061  412-48-336      2   93   62   0.460  -0.440        0
  7062  411-48-336     -2   93   62   0.500  -0.270        0
  7063  411-56-11      -2   93   62   0.500  -0.270        0
  7064  411-61-60      -2   93   62   0.500  -0.270        0
  7065  411-66-54      -2   93   62   0.500  -0.270        0
  7066  411-71-33      -2   93   62   0.500  -0.270        0
  7067  405-38-6       -2   94   62  -0.010   0.280        0
  7068  405-42-355     -2   94   62  -0.010   0.280        0
  7069  405-48-334     -2   94   62  -0.010   0.280        0
  7070  405-56-11      -2   94   62  -0.010   0.280        0
  7071  405-61-60      -2   94   62  -0.010   0.280        0
  7072  405-66-54      -2   94   62  -0.010   0.280        0
  7073  405-71-33       3   94   62  -0.010   0.280        0
  7074  396-17-4       -3   95   62  -0.350  -0.240        0
  7075  396-27-12      -3   95   62  -0.350  -0.240        0
  7076  396-38-6       -2   95   62  -0.350  -0.240        0
  7077  396-42-355     -2   95   62  -0.350  -0.240        0
  7078  396-48-336     -2   95   62  -0.350  -0.240        0
  7079  393-1-358       1   95   62  -0.090  -0.270        0
  7080  398-38-6       -2   94   61   0.490   0.200        0
  7081  398-42-356     -2   94   61   0.490   0.200        0
  7082  387-42-356      3   95   61   0.410  -0.420        0
  7083  387-48-336      3   95   61   0.410  -0.420        0
  7084  387-56-11       3   95   61   0.410  -0.420        0
  7085  387-61-60       3   95   61   0.410  -0.420        0
  7086  387-66-54       3   95   61   0.410  -0.420        0
  7087  387-71-33       3   95   61   0.410  -0.420        0
  7088  386-17-4        2   95   61   0.450   0.470        0
  7089  386-27-12       2   95   61   0.450   0.470        0
  7090  386-48-336      2   95   61   0.450   0.470        0
  7091  381-38-6       -2   96   61  -0.470   0.070        0
  7092  381-42-356     -2   96   61  -0.470   0.070        0
  7093  381-48-336     -2   96   61  -0.470   0.070        0
  7094  361-26-295      3   96   61   0.440  -0.060        0
  7095  361-43-14       3   96   61   0.440  -0.060        0
  7096  361-56-12       3   96   61   0.440  -0.060        0
  7097  361-61-60       3   96   61   0.440  -0.060        0
  7098  361-66-31       3   96   61   0.440  -0.060        0
  7099  365-1-365       1   96   61   0.410   0.430        0
  7100  364-42-356      3   96   62   0.410   0.020        0
  7101  363-1-365       1   96   62   0.410   0.480        0
  7102  391-56-12      -2   95   59   0.070  -0.370        0
  7103  391-61-60      -2   95   59   0.070  -0.370        0
  7104  372-43-14       3   96   59  -0.050   0.440        0
  7105  372-56-12       3   96   59  -0.050   0.440        0
  7106  372-61-60       3   96   59  -0.050   0.440        0
  7107  375-56-19       3   96   58  -0.210  -0.480        0
  7108  358-56-19       3   97   58  -0.330  -0.450        0
  7109  350-56-19       3   98   58  -0.480  -0.450        0
  7110  343-56-19       3   98   58   0.130  -0.450        0
  7111  345-43-6        3   98   58  -0.030  -0.030        0
  7112  356-56-12       3   97   60  -0.020  -0.130        0
  7113  356-61-60       3   97   60  -0.020  -0.130        0
  7114  352-17-4        2   97   60   0.360  -0.040        0
  7115  352-22-51       2   97   60   0.360  -0.040        0
  7116  352-27-14       2   97   60   0.360  -0.040        0
  7117  342-37-342      3   98   60   0.400  -0.260        0
  7118  342-43-14       3   98   60   0.400  -0.260        0
  7119  349-27-13       1   98   63  -0.410  -0.460        0
  7120  348-56-11      -2   98   63  -0.370  -0.460        0
  7121  348-61-54      -2   98   63  -0.370  -0.460        0
  7122  348-66-35      -2   98   63  -0.370  -0.460        0
  7123  351-3-56       -2   97   61   0.400  -0.250        0
  7124  351-22-46      -2   97   61   0.400  -0.250        0
  7125  351-27-62      -2   97   61   0.400  -0.250        0
  7126  351-37-342      2   97   61   0.400  -0.250        0
  7127  351-43-14       2   97   61   0.400  -0.250        0
  7128  351-48-337      2   97   61   0.400  -0.250        0
  7129  351-56-11       2   97   61   0.400  -0.250        0
  7130  351-61-54       2   97   61   0.400  -0.250        0
  7131  351-66-35       2   97   61   0.400  -0.250        0
  7132  346-17-4        1   98   61  -0.140  -0.380        0
  7133  346-27-14       1   98   61  -0.140  -0.380        0
  7134  347-11-304     -2   98   61  -0.220  -0.320        0
  7135  347-17-59      -2   98   61  -0.220  -0.320        0
  7136  347-22-46      -2   98   61  -0.220  -0.320        0
  7137  347-27-14      -2   98   61  -0.220  -0.320        0
  7138  347-31-335     -2   98   61  -0.220  -0.320        0
  7139  347-56-11       2   98   61  -0.220  -0.320        0
  7140  347-61-54       2   98   61  -0.220  -0.320        0
  7141  347-66-35       2   98   61  -0.220  -0.320        0
  7142  341-17-4        2   98   62   0.430   0.120        0
  7143  524-37-354      3   87   73  -0.480   0.500        0
  7144  524-43-4        3   87   73  -0.480   0.500        0
  7145  524-48-335      3   87   73  -0.480   0.500        0
  7146  524-56-9        3   87   73  -0.480   0.500        0
  7147  524-61-47       3   87   73  -0.480   0.500        0
  7148  524-65-357      3   87   73  -0.480   0.500        0
  7149  524-71-362      3   87   73  -0.480   0.500        0
  7150  3418-43-4      -2   87   71  -0.470   0.470        0
  7151  3418-48-362    -2   87   71  -0.470   0.470        0
  7152  3418-56-9      -2   87   71  -0.470   0.470        0
  7153  3418-65-357    -2   87   71  -0.470   0.470        0
  7154  3418-71-362    -2   87   71  -0.470   0.470        0
  7155  525-35-347      2   87   69  -0.470   0.450        0
  7156  525-56-9        2   87   69  -0.470   0.450        0
  7157  525-71-362      2   87   69  -0.470   0.450        0
  7158  514-31-335     -2   87   68   0.070  -0.140        0
  7159  514-36-360     -2   87   68   0.070  -0.140        0
  7160  514-43-4       -2   87   68   0.070  -0.140        0
  7161  514-48-362     -2   87   68   0.070  -0.140        0
  7162  514-56-9       -2   87   68   0.070  -0.140        0
  7163  514-61-47      -2   87   68   0.070  -0.140        0
  7164  514-65-357     -2   87   68   0.070  -0.140        0
  7165  514-71-362     -2   87   68   0.070  -0.140        0
  7166  513-32-41      -2   87   67   0.140  -0.320        0
  7167  513-39-60      -2   87   67   0.140  -0.320        0
  7168  513-43-4       -2   87   67   0.140  -0.320        0
  7169  513-48-362     -2   87   67   0.140  -0.320        0
  7170  513-56-9       -2   87   67   0.140  -0.320        0
  7171  513-61-47      -2   87   67   0.140  -0.320        0
  7172  513-65-357     -2   87   67   0.140  -0.320        0
  7173  513-71-362     -2   87   67   0.140  -0.320        0
  7174  526-11-307      1   87   66  -0.390  -0.200        0
  7175  526-17-53       1   87   66  -0.390  -0.200        0
  7176  526-22-38       1   87   66  -0.390  -0.200        0
  7177  487-17-4       -2   89   65  -0.480   0.380        0
  7178  487-27-10      -2   89   65  -0.480   0.380        0
  7179  487-38-6       -2   89   65  -0.480   0.380        0
  7180  487-42-356     -2   89   65  -0.480   0.380        0
  7181  494-42-355     -2   88   65   0.180   0.440        0
  7182  494-48-334     -2   88   65   0.180   0.440        0
  7183  494-56-10      -2   88   65   0.180   0.440        0
  7184  494-61-60      -2   88   65   0.180   0.440        0
  7185  494-66-49      -2   88   65   0.180   0.440        0
  7186  494-71-33      -2   88   65   0.180   0.440        0
  7187  530-38-6       -2   86   64   0.490  -0.030        0
  7188  530-48-334     -2   86   64   0.490  -0.030        0
  7189  530-56-10      -2   86   64   0.490  -0.030        0
  7190  530-61-60      -2   86   64   0.490  -0.030        0
  7191  530-66-49      -2   86   64   0.490  -0.030        0
  7192  530-71-33      -2   86   64   0.490  -0.030        0
  7193  509-38-6       -2   87   64   0.490  -0.030        0
  7194  509-42-355     -2   87   64   0.490  -0.030        0
  7195  509-48-334     -2   87   64   0.490  -0.030        0
  7196  509-56-10      -2   87   64   0.490  -0.030        0
  7197  509-61-60      -2   87   64   0.490  -0.030        0
  7198  509-66-49      -2   87   64   0.490  -0.030        0
  7199  509-71-33      -2   87   64   0.490  -0.030        0
  7200  518-17-3        2   87   63  -0.080  -0.400        0
  7201  518-27-11       2   87   63  -0.080  -0.400        0
  7202  518-42-355      2   87   63  -0.080  -0.400        0
  7203  510-1-358       1   87   63   0.380   0.350        0
  7204  495-1-358       2   88   63   0.370  -0.430        0
  7205  491-7-49        2   88   64   0.410  -0.160        0
  7206  490-7-49        1   88   64   0.480   0.370        0
  7207  490-17-4        1   88   64   0.480   0.370        0
  7208  490-27-10       1   88   64   0.480   0.370        0
  7209  481-38-7       -3   89   64   0.020  -0.020        0
  7210  481-42-355     -3   89   64   0.020  -0.020        0
  7211  481-48-334     -3   89   64   0.020  -0.020        0
  7212  481-56-10      -3   89   64   0.020  -0.020        0
  7213  481-61-60      -2   89   64   0.020  -0.020        0
  7214  481-66-49      -2   89   64   0.020  -0.020        0
  7215  481-71-33      -2   89   64   0.020  -0.020        0
  7216  473-38-7       -2   89   64   0.440   0.500        0
  7217  473-42-355     -2   89   64   0.440   0.500        0
  7218  484-38-6        3   89   63  -0.250  -0.260        0
  7219  455-22-51      -2   90   64   0.470   0.370        0
  7220  455-27-11      -2   90   64   0.470   0.370        0
  7221  455-38-7       -2   90   64   0.470   0.370        0
  7222  455-42-355     -2   90   64   0.470   0.370        0
  7223  455-48-336     -2   90   64   0.470   0.370        0
  7224  457-1-358       1   90   63   0.470   0.100        0
  7225  456-38-6        3   90   64   0.470  -0.320        0
  7226  456-42-356      3   90   64   0.470  -0.320        0
  7227  456-48-334      3   90   64   0.470  -0.320        0
  7228  456-56-10       3   90   64   0.470  -0.320        0
  7229  456-61-60       3   90   64   0.470  -0.320        0
  7230  456-66-54       3   90   64   0.470  -0.320        0
  7231  456-71-33       3   90   64   0.470  -0.320        0
  7232  454-8-253      -2   91   65  -0.490  -0.400        0
  7233  454-38-6       -2   91   65  -0.490  -0.400        0
  7234  454-42-355     -2   91   65  -0.490  -0.400        0
  7235  454-48-334     -2   91   65  -0.490  -0.400        0
  7236  454-56-10      -2   91   65  -0.490  -0.400        0
  7237  454-61-60      -2   91   65  -0.490  -0.400        0
  7238  454-66-49      -2   91   65  -0.490  -0.400        0
  7239  454-71-33      -2   91   65  -0.490  -0.400        0
  7240  483-48-334      2   89   65  -0.250  -0.050        0
  7241  475-1-365       1   89   65   0.400  -0.370        0
  7242  472-17-4       -2   89   66   0.480  -0.490        0
  7243  472-27-12      -2   89   66   0.480  -0.490        0
  7244  472-38-6       -2   89   66   0.480  -0.490        0
  7245  472-42-355     -2   89   66   0.480  -0.490        0
  7246  472-48-334     -2   89   66   0.480  -0.490        0
  7247  464-17-4        3   90   65  -0.060   0.410        0
  7248  464-27-12       3   90   65  -0.060   0.410        0
  7249  464-48-336      3   90   65  -0.060   0.410        0
  7250  442-71-61       2   91   74  -0.120   0.290        0
  7251  438-48-336      1   91   66   0.310   0.330        0
  7252  436-71-336      3   91   65   0.350   0.440        0
  7253  422-17-55       1   93   66  -0.420  -0.390        0
  7254  422-22-38       1   93   66  -0.420  -0.390        0
  7255  422-27-12       1   93   66  -0.420  -0.390        0
  7256  422-31-335      1   93   66  -0.420  -0.390        0
  7257  422-38-91       1   93   66  -0.420  -0.390        0
  7258  426-48-336      1   92   66   0.190   0.230        0
  7259  426-56-13       1   92   66   0.190   0.230        0
  7260  426-66-34       1   92   66   0.190   0.230        0
  7261  430-7-49        2   92   64  -0.420  -0.450        0
  7262  430-17-4        2   92   64  -0.420  -0.450        0
  7263  430-27-10       2   92   64  -0.420  -0.450        0
  7264  432-38-6       -2   92   64  -0.490   0.010        0
  7265  432-42-356     -2   92   64  -0.490   0.010        0
  7266  432-48-334     -2   92   64  -0.490   0.010        0
  7267  432-56-10      -2   92   64  -0.490   0.010        0
  7268  432-61-60      -2   92   64  -0.490   0.010        0
  7269  432-66-49      -2   92   64  -0.490   0.010        0
  7270  432-71-33      -2   92   64  -0.490   0.010        0
  7271  452-48-335      2   91   64  -0.450  -0.450        0
  7272  452-56-11       2   91   64  -0.450  -0.450        0
  7273  431-1-358       1   92   63  -0.450   0.160        0
  7274  431-6-340       1   92   63  -0.450   0.160        0
  7275  431-11-333      1   92   63  -0.450   0.160        0
  7276  431-36-38       2   92   63  -0.450   0.160        0
  7277  429-42-356     -2   92   64  -0.030   0.400        0
  7278  429-48-334     -2   92   64  -0.030   0.400        0
  7279  429-56-11      -2   92   64  -0.030   0.400        0
  7280  429-61-60      -2   92   64  -0.030   0.400        0
  7281  429-66-54      -2   92   64  -0.030   0.400        0
  7282  429-71-33      -2   92   64  -0.030   0.400        0
  7283  420-17-7       -2   93   64  -0.380  -0.410        0
  7284  420-27-10      -2   93   64  -0.380  -0.410        0
  7285  420-48-335      2   93   64  -0.380  -0.410        0
  7286  407-38-6       -2   94   63  -0.040  -0.200        0
  7287  407-42-355     -2   94   63  -0.040  -0.200        0
  7288  407-48-334     -2   94   63  -0.040  -0.200        0
  7289  401-38-6        2   94   64   0.420  -0.480        0
  7290  401-42-355      2   94   64   0.420  -0.480        0
  7291  401-48-335      2   94   64   0.420  -0.480        0
  7292  410-42-355      3   94   64  -0.310  -0.150        0
  7293  410-48-334      3   94   64  -0.310  -0.150        0
  7294  410-56-10       3   94   64  -0.310  -0.150        0
  7295  410-61-60       3   94   64  -0.310  -0.150        0
  7296  410-66-49       3   94   64  -0.310  -0.150        0
  7297  410-71-33       3   94   64  -0.310  -0.150        0
  7298  376-31-348      1   93   68   0.120  -0.040        0
  7299  376-37-19       1   93   68   0.120  -0.040        0
  7300  376-43-47       1   93   68   0.120  -0.040        0
  7301  376-48-343      1   93   68   0.120  -0.040        0
  7302  376-56-11       1   93   68   0.120  -0.040        0
  7303  376-60-321      1   93   68   0.120  -0.040        0
  7304  376-65-298      1   93   68   0.120  -0.040        0
  7305  414-71-365      2   93   68   0.300   0.490        0
  7306  416-34-357     -2   93   69   0.150   0.430        0
  7307  366-17-55       2   96   68   0.170   0.420        0
  7308  366-22-33       2   96   68   0.170   0.420        0
  7309  366-27-10       2   96   68   0.170   0.420        0
  7310  366-33-10       2   96   68   0.170   0.420        0
  7311  370-17-55      -2   96   65  -0.020   0.090        0
  7312  370-22-46      -2   96   65  -0.020   0.090        0
  7313  370-31-335     -2   96   65  -0.020   0.090        0
  7314  370-37-91      -2   96   65  -0.020   0.090        0
  7315  394-27-10       1   95   64  -0.090   0.370        0
  7316  389-42-355      3   95   64   0.070   0.010        0
  7317  389-48-334      3   95   64   0.070   0.010        0
  7318  389-56-10       3   95   64   0.070   0.010        0
  7319  389-61-60       3   95   64   0.070   0.010        0
  7320  389-66-48       3   95   64   0.070   0.010        0
  7321  389-71-33       3   95   64   0.070   0.010        0
  7322  382-48-334     -2   95   64   0.490   0.010        0
  7323  395-17-4       -2   95   63  -0.280  -0.330        0
  7324  395-27-13      -2   95   63  -0.280  -0.330        0
  7325  395-38-6        2   95   63  -0.280  -0.330        0
  7326  395-42-356      2   95   63  -0.280  -0.330        0
  7327  395-48-334      2   95   63  -0.280  -0.330        0
  7328  395-56-11       2   95   63  -0.280  -0.330        0
  7329  395-61-60       2   95   63  -0.280  -0.330        0
  7330  395-66-54       2   95   63  -0.280  -0.330        0
  7331  395-71-33       2   95   63  -0.280  -0.330        0
  7332  379-42-356      2   96   63  -0.440  -0.330        0
  7333  379-48-334      2   96   63  -0.440  -0.330        0
  7334  379-56-11       2   96   63  -0.440  -0.330        0
  7335  385-7-49        2   95   63   0.450   0.130        0
  7336  384-7-49        1   95   63   0.450   0.420        0
  7337  374-1-358       1   96   63  -0.130  -0.130        0
  7338  362-38-6       -2   96   63   0.440  -0.230        0
  7339  362-42-355     -2   96   63   0.440  -0.230        0
  7340  362-48-334     -2   96   63   0.440  -0.230        0
  7341  362-56-10      -2   96   63   0.440  -0.230        0
  7342  362-61-60      -2   96   63   0.440  -0.230        0
  7343  362-66-48      -2   96   63   0.440  -0.230        0
  7344  362-71-33       3   96   63   0.440  -0.230        0
  7345  360-26-313     -3   96   64   0.440  -0.480        0
  7346  360-38-6       -3   96   64   0.440  -0.480        0
  7347  371-38-6       -3   96   64  -0.020   0.040        0
  7348  371-42-355     -3   96   64  -0.020   0.040        0
  7349  355-48-342      2   97   63  -0.020   0.100        0
  7350  355-56-13       2   97   63  -0.020   0.100        0
  7351  355-61-61       2   97   63  -0.020   0.100        0
  7352  355-66-32       2   97   63  -0.020   0.100        0
  7353  353-1-365       1   97   63   0.320   0.330        0
  7354  353-8-22        1   97   63   0.320   0.330        0
  7355  353-11-304      1   97   63   0.320   0.330        0
  7356  353-61-61       1   97   63   0.320   0.330        0
  7357  353-66-32       1   97   63   0.320   0.330        0
  7358  501-27-60       3   88   84  -0.310   0.130        0
  7359  501-37-32       3   88   84  -0.310   0.130        0
  7360  501-43-53       3   88   84  -0.310   0.130        0
  7361  501-48-336      3   88   84  -0.310   0.130        0
  7362  501-56-17       3   88   84  -0.310   0.130        0
  7363  501-60-320      3   88   84  -0.310   0.130        0
  7364  501-65-299      3   88   84  -0.310   0.130        0
  7365  501-71-365      2   88   84  -0.310   0.130        0
  7366  536-61-52       1   86   75   0.180   0.450        0
  7367  536-66-18       1   86   75   0.180   0.450        0
  7368  536-71-62       1   86   75   0.180   0.450        0
  7369  540-43-50       1   86   76   0.020  -0.420        0
  7370  540-56-17       1   86   76   0.020  -0.420        0
  7371  451-37-32       3   91   85  -0.330   0.270        0
  7372  451-43-53       3   91   85  -0.330   0.270        0
  7373  451-48-336      3   91   85  -0.330   0.270        0
  7374  451-56-17       3   91   85  -0.330   0.270        0
  7375  451-61-52       3   91   85  -0.330   0.270        0
  7376  451-71-336      3   91   85  -0.330   0.270        0
  7377  419-71-61       2   93   76  -0.410   0.460        0
  7378  425-71-61       3   92   84   0.300   0.040        0
  7379  397-48-336      3   94   83   0.470   0.000        0
  7380  378-71-61       2   96   75  -0.410  -0.210        0
  7381  477-7-99        1   89   75   0.350   0.200        0
  7382  477-11-60       1   89   75   0.350   0.200        0
  7383  477-17-53       1   89   75   0.350   0.200        0
  7384  477-22-39       1   89   75   0.350   0.200        0
  7385  477-32-6        1   89   75   0.350   0.200        0
  7386  477-37-32       1   89   75   0.350   0.200        0
  7387  478-48-335      1   89   75   0.280   0.230        0
  7388  478-56-17       1   89   75   0.280   0.230        0
  7389  218-42-337      3  107   51  -0.230  -0.470        0
  7390  337-37-343      3   99   62  -0.300   0.220        0
  7391  337-43-14       3   99   62  -0.300   0.220        0
  7392  337-56-12       3   99   62  -0.300   0.220        0
  7393  337-61-61       3   99   62  -0.300   0.220        0
  7394  337-66-31       3   99   62  -0.300   0.220        0
  7395  328-56-11      -2   99   62   0.350   0.150        0
  7396  328-61-61      -2   99   62   0.350   0.150        0
  7397  328-66-32      -2   99   62   0.350   0.150        0
  7398  329-1-365       2   99   61   0.280  -0.380        0
  7399  327-1-365       1   99   61   0.430  -0.280        0
  7400  326-26-319     -3  100   61  -0.500   0.140        0
  7401  326-31-335     -3  100   61  -0.500   0.140        0
  7402  326-38-32      -3  100   61  -0.500   0.140        0
  7403  326-56-11      -3  100   61  -0.500   0.140        0
  7404  326-61-54      -3  100   61  -0.500   0.140        0
  7405  326-66-32      -3  100   61  -0.500   0.140        0
  7406  321-43-14       3  100   61  -0.190  -0.350        0
  7407  321-56-12       3  100   61  -0.190  -0.350        0
  7408  322-1-358       2  100   61  -0.110  -0.090        0
  7409  322-6-340       2  100   61  -0.110  -0.090        0
  7410  322-11-333      2  100   61  -0.110  -0.090        0
  7411  322-16-301      2  100   61  -0.110  -0.090        0
  7412  322-22-46       2  100   61  -0.110  -0.090        0
  7413  322-27-32       2  100   61  -0.110  -0.090        0
  7414  308-34-333     -3  100   61   0.460  -0.350        0
  7415  316-7-283       2  100   62   0.230  -0.440        0
  7416  316-11-333      2  100   62   0.230  -0.440        0
  7417  316-16-301      2  100   62   0.230  -0.440        0
  7418  316-22-46       2  100   62   0.230  -0.440        0
  7419  316-27-11       2  100   62   0.230  -0.440        0
  7420  316-31-335      2  100   62   0.230  -0.440        0
  7421  316-38-32       2  100   62   0.230  -0.440        0
  7422  316-48-337      2  100   62   0.230  -0.440        0
  7423  316-56-11       2  100   62   0.230  -0.440        0
  7424  316-60-321      2  100   62   0.230  -0.440        0
  7425  316-65-300      2  100   62   0.230  -0.440        0
  7426  310-1-365       1  100   61   0.380   0.340        0
  7427  310-27-49       1  100   61   0.380   0.340        0
  7428  310-56-11       1  100   61   0.380   0.340        0
  7429  310-61-54       1  100   61   0.380   0.340        0
  7430  310-66-32       1  100   61   0.380   0.340        0
  7431  324-1-365       2  100   62  -0.340  -0.340        0
  7432  307-56-11       1  100   62   0.460   0.450        0
  7433  335-1-365       1   99   60  -0.150   0.290        0
  7434  333-56-9       -2   99   60  -0.030   0.130        0
  7435  323-56-11       2  100   61  -0.300  -0.480        0
  7436  323-61-61       2  100   61  -0.300  -0.480        0
  7437  311-17-5       -3  100   60   0.310  -0.030        0
  7438  311-27-14      -3  100   60   0.310  -0.030        0
  7439  314-56-25       3  100   60   0.270   0.060        0
  7440  314-61-62       3  100   60   0.270   0.060        0
  7441  318-48-343      3  100   58   0.160  -0.260        0
  7442  302-42-348      3  101   58  -0.160   0.040        0
  7443  301-22-62       3  101   58  -0.120   0.460        0
  7444  301-27-6        3  101   58  -0.120   0.460        0
  7445  301-38-32       3  101   58  -0.120   0.460        0
  7446  295-22-62       3  101   58   0.380  -0.350        0
  7447  295-38-5        3  101   58   0.380  -0.350        0
  7448  295-56-24       3  101   58   0.380  -0.350        0
  7449  295-66-32       3  101   58   0.380  -0.350        0
  7450  281-38-5        3  102   58   0.150  -0.160        0
  7451  281-42-348      3  102   58   0.150  -0.160        0
  7452  270-22-62       3  103   58  -0.400  -0.350        0
  7453  270-38-32       3  103   58  -0.400  -0.350        0
  7454  271-38-5        3  102   58   0.450  -0.120        0
  7455  271-42-348      3  102   58   0.450  -0.120        0
  7456  271-48-337      3  102   58   0.450  -0.120        0
  7457  271-56-10       3  102   58   0.450  -0.120        0
  7458  271-61-61       3  102   58   0.450  -0.120        0
  7459  271-66-61       3  102   58   0.450  -0.120        0
  7460  290-56-25      -2  101   59   0.380   0.410        0
  7461  290-61-62      -2  101   59   0.380   0.410        0
  7462  280-17-4        1  102   59   0.150   0.340        0
  7463  280-27-14       1  102   59   0.150   0.340        0
  7464  278-7-274      -2  102   60   0.180   0.060        0
  7465  274-7-274      -2  102   61   0.180   0.210        0
  7466  274-38-7       -2  102   61   0.180   0.210        0
  7467  274-42-355     -2  102   61   0.180   0.210        0
  7468  274-48-335     -2  102   61   0.180   0.210        0
  7469  274-56-11      -2  102   61   0.180   0.210        0
  7470  279-17-5       -2  102   62   0.140  -0.040        0
  7471  279-42-355     -2  102   62   0.140  -0.040        0
  7472  282-42-355     -2  102   62   0.070  -0.040        0
  7473  282-48-335     -2  102   62   0.070  -0.040        0
  7474  282-56-11      -2  102   62   0.070  -0.040        0
  7475  282-61-60      -2  102   62   0.070  -0.040        0
  7476  282-66-48      -2  102   62   0.070  -0.040        0
  7477  265-42-355     -2  103   62   0.020   0.150        0
  7478  265-48-335     -2  103   62   0.020   0.150        0
  7479  265-56-11      -2  103   62   0.020   0.150        0
  7480  265-61-60      -2  103   62   0.020   0.150        0
  7481  265-66-48      -2  103   62   0.020   0.150        0
  7482  265-71-34      -2  103   62   0.020   0.150        0
  7483  264-38-7        2  103   62   0.020  -0.080        0
  7484  264-42-355      2  103   62   0.020  -0.080        0
  7485  264-48-335      2  103   62   0.020  -0.080        0
  7486  264-56-11       2  103   62   0.020  -0.080        0
  7487  264-61-60       2  103   62   0.020  -0.080        0
  7488  264-66-48       2  103   62   0.020  -0.080        0
  7489  264-71-34       2  103   62   0.020  -0.080        0
  7490  268-1-365       2  103   61  -0.050   0.340        0
  7491  268-38-7        2  103   61  -0.050   0.340        0
  7492  268-43-47       2  103   61  -0.050   0.340        0
  7493  268-48-335      2  103   61  -0.050   0.340        0
  7494  250-7-274      -2  104   61  -0.320  -0.020        0
  7495  250-17-5       -2  104   61  -0.320  -0.020        0
  7496  250-38-7       -2  104   61  -0.320  -0.020        0
  7497  250-42-355     -2  104   61  -0.320  -0.020        0
  7498  250-56-11      -2  104   61  -0.320  -0.020        0
  7499  250-61-60      -2  104   61  -0.320  -0.020        0
  7500  250-66-48      -2  104   61  -0.320  -0.020        0
  7501  250-71-34      -2  104   61  -0.320  -0.020        0
  7502  252-48-335     -2  104   62  -0.320  -0.300        0
  7503  256-42-355     -2  103   60   0.370   0.160        0
  7504  256-48-335     -2  103   60   0.370   0.160        0
  7505  256-56-11      -2  103   60   0.370   0.160        0
  7506  256-61-60      -2  103   60   0.370   0.160        0
  7507  256-66-48      -2  103   60   0.370   0.160        0
  7508  256-71-34      -2  103   60   0.370   0.160        0
  7509  261-17-5       -3  103   59   0.180   0.180        0
  7510  261-17-64      -3  103   59   0.180   0.180        0
  7511  261-22-41      -3  103   59   0.180   0.180        0
  7512  262-48-338      3  103   59   0.100   0.180        0
  7513  262-56-9        3  103   59   0.100   0.180        0
  7514  262-61-62       3  103   59   0.100   0.180        0
  7515  247-1-365       2  104   59   0.170   0.410        0
  7516  247-7-291       2  104   59   0.170   0.410        0
  7517  247-27-11       2  104   59   0.170   0.410        0
  7518  266-36-1        2  103   58   0.030   0.070        0
  7519  260-48-338      2  103   58   0.330  -0.220        0
  7520  259-56-9        3  103   58   0.250  -0.220        0
  7521  259-61-62       3  103   58   0.250  -0.220        0
  7522  259-66-47       3  103   58   0.250  -0.220        0
  7523  259-71-35       3  103   58   0.250  -0.220        0
  7524  269-38-4        3  103   55  -0.240  -0.290        0
  7525  269-42-337      3  103   55  -0.240  -0.290        0
  7526  269-48-337      3  103   55  -0.240  -0.290        0
  7527  269-56-10       3  103   55  -0.240  -0.290        0
  7528  269-61-61       3  103   55  -0.240  -0.290        0
  7529  269-66-61       3  103   55  -0.240  -0.290        0
  7530  257-56-10       3  104   55  -0.480  -0.160        0
  7531  257-61-61       3  104   55  -0.480  -0.160        0
  7532  257-66-61       3  104   55  -0.480  -0.160        0
  7533  254-38-4        3  104   55  -0.360  -0.290        0
  7534  254-42-337      3  104   55  -0.360  -0.290        0
  7535  253-48-337     -2  104   56  -0.400   0.440        0
  7536  253-56-10      -2  104   56  -0.400   0.440        0
  7537  253-61-61      -2  104   56  -0.400   0.440        0
  7538  253-66-61      -2  104   56  -0.400   0.440        0
  7539  248-38-5        3  104   51   0.060   0.280        0
  7540  248-42-337      3  104   51   0.060   0.280        0
  7541  248-48-337      3  104   51   0.060   0.280        0
  7542  241-48-337      3  105   56  -0.480   0.440        0
  7543  241-56-10       3  105   56  -0.480   0.440        0
  7544  241-61-61       3  105   56  -0.480   0.440        0
  7545  241-66-61       3  105   56  -0.480   0.440        0
  7546  229-48-337      3  106   57  -0.490  -0.500        0
  7547  229-56-11       3  106   57  -0.490  -0.500        0
  7548  242-38-4        3  105   55  -0.370  -0.230        0
  7549  242-42-337      3  105   55  -0.370  -0.230        0
  7550  243-56-10       3  105   55  -0.370  -0.330        0
  7551  238-56-10       3  105   55  -0.180  -0.290        0
  7552  235-56-10       3  105   55   0.050  -0.330        0
  7553  228-38-5        3  106   55  -0.490  -0.230        0
  7554  228-42-348      3  106   55  -0.490  -0.230        0
  7555  228-48-337      3  106   55  -0.490  -0.230        0
  7556  230-48-337     -2  105   55   0.470  -0.290        0
  7557  230-56-10      -2  105   55   0.470  -0.290        0
  7558  232-31-335     -3  105   58   0.320   0.040        0
  7559  232-37-361     -3  105   58   0.320   0.040        0
  7560  232-48-337     -2  105   58   0.320   0.040        0
  7561  232-56-9       -2  105   58   0.320   0.040        0
  7562  232-61-62      -2  105   58   0.320   0.040        0
  7563  232-66-47      -2  105   58   0.320   0.040        0
  7564  232-71-35      -2  105   58   0.320   0.040        0
  7565  237-17-5        3  105   60  -0.060  -0.430        0
  7566  237-27-11       3  105   60  -0.060  -0.430        0
  7567  237-37-357      3  105   60  -0.060  -0.430        0
  7568  237-42-355      3  105   60  -0.060  -0.430        0
  7569  237-48-335      3  105   60  -0.060  -0.430        0
  7570  237-56-11       3  105   60  -0.060  -0.430        0
  7571  237-61-60       3  105   60  -0.060  -0.430        0
  7572  237-66-48       3  105   60  -0.060  -0.430        0
  7573  237-71-34       3  105   60  -0.060  -0.430        0
  7574  239-1-365      -2  105   61  -0.290  -0.320        0
  7575  239-42-355     -2  105   61  -0.290  -0.320        0
  7576  240-22-1       -3  105   61  -0.290  -0.320        0
  7577  240-38-7       -3  105   61  -0.290  -0.320        0
  7578  240-48-335     -3  105   61  -0.290  -0.320        0
  7579  240-56-10      -3  105   61  -0.290  -0.320        0
  7580  240-66-48      -3  105   61  -0.290  -0.320        0
  7581  240-71-34      -3  105   61  -0.290  -0.320        0
  7582  231-48-335      3  105   61   0.320  -0.150        0
  7583  231-56-10       3  105   61   0.320  -0.150        0
  7584  233-17-5       -3  105   61   0.130  -0.320        0
  7585  233-38-7       -3  105   61   0.130  -0.320        0
  7586  233-42-355     -3  105   61   0.130  -0.320        0
  7587  234-42-355     -3  105   61   0.210  -0.320        0
  7588  234-48-335     -3  105   61   0.210  -0.320        0
  7589  234-56-10      -3  105   61   0.210  -0.320        0
  7590  234-60-322     -3  105   61   0.210  -0.320        0
  7591  234-66-48      -3  105   61   0.210  -0.320        0
  7592  234-71-34      -3  105   61   0.210  -0.320        0
  7593  213-1-310       2  107   61  -0.030  -0.410        0
  7594  213-6-310       2  107   61  -0.030  -0.410        0
  7595  213-27-11       2  107   61  -0.030  -0.410        0
  7596  213-42-355      2  107   61  -0.030  -0.410        0
  7597  216-7-291      -2  107   60  -0.300  -0.360        0
  7598  216-22-32      -2  107   60  -0.300  -0.360        0
  7599  216-27-11      -2  107   60  -0.300  -0.360        0
  7600  216-38-7       -2  107   60  -0.300  -0.360        0
  7601  216-42-355     -2  107   60  -0.300  -0.360        0
  7602  210-1-365       2  107   59   0.040   0.080        0
  7603  210-38-7        2  107   59   0.040   0.080        0
  7604  210-42-355      2  107   59   0.040   0.080        0
  7605  210-48-335      2  107   59   0.040   0.080        0
  7606  210-56-11       2  107   59   0.040   0.080        0
  7607  189-17-6       -2  108   59   0.500   0.050        0
  7608  189-22-54      -2  108   59   0.500   0.050        0
  7609  189-27-11      -2  108   59   0.500   0.050        0
  7610  189-38-7       -2  108   59   0.500   0.050        0
  7611  189-42-355     -2  108   59   0.500   0.050        0
  7612  189-48-335     -2  108   59   0.500   0.050        0
  7613  189-56-9       -2  108   59   0.500   0.050        0
  7614  189-61-60      -2  108   59   0.500   0.050        0
  7615  189-66-48      -2  108   59   0.500   0.050        0
  7616  189-71-34      -2  108   59   0.500   0.050        0
  7617  200-38-7       -2  108   60  -0.310  -0.030        0
  7618  200-42-356     -2  108   60  -0.310  -0.030        0
  7619  200-48-335     -2  108   60  -0.310  -0.030        0
  7620  200-56-9       -2  108   60  -0.310  -0.030        0
  7621  200-61-60      -2  108   60  -0.310  -0.030        0
  7622  200-66-48      -2  108   60  -0.310  -0.030        0
  7623  201-38-7       -2  107   59   0.390  -0.370        0
  7624  201-42-356     -2  107   59   0.390  -0.370        0
  7625  201-48-335     -2  107   59   0.390  -0.370        0
  7626  201-56-11      -2  107   59   0.390  -0.370        0
  7627  201-61-60      -2  107   59   0.390  -0.370        0
  7628  201-66-48      -2  107   59   0.390  -0.370        0
  7629  201-71-34      -2  107   59   0.390  -0.370        0
  7630  199-17-5        3  107   58   0.460   0.300        0
  7631  199-22-54       3  107   58   0.460   0.300        0
  7632  199-27-11       3  107   58   0.460   0.300        0
  7633  199-38-7        3  107   58   0.460   0.300        0
  7634  199-42-356      3  107   58   0.460   0.300        0
  7635  199-48-335      3  107   58   0.460   0.300        0
  7636  217-38-5        2  107   55  -0.230  -0.100        0
  7637  217-42-348      3  107   55  -0.230  -0.100        0
  7638  220-38-5       -2  107   55  -0.380  -0.190        0
  7639  220-42-348     -2  107   55  -0.380  -0.190        0
  7640  220-56-10      -2  107   55  -0.380  -0.190        0
  7641  220-61-61      -2  107   55  -0.380  -0.190        0
  7642  220-66-61      -2  107   55  -0.380  -0.190        0
  7643  204-38-5        2  108   55  -0.460  -0.260        0
  7644  204-42-348      2  108   55  -0.460  -0.260        0
  7645  202-38-5       -2  108   55  -0.380  -0.200        0
  7646  202-42-348     -2  108   55  -0.380  -0.200        0
  7647  198-39-190     -2  108   55  -0.040  -0.160        0
  7648  194-39-138     -2  108   55   0.380  -0.030        0
  7649  190-56-10       3  108   55   0.420  -0.130        0
  7650  190-61-61       3  108   55   0.420  -0.130        0
  7651  192-38-5        3  108   54   0.460  -0.240        0
  7652  192-42-337      3  108   54   0.460  -0.240        0
  7653  191-39-212     -2  108   54   0.460  -0.110        0
  7654  193-38-5       -2  108   54   0.420   0.350        0
  7655  193-42-348     -2  108   54   0.420   0.350        0
  7656  188-56-10       3  108   53   0.500  -0.350        0
  7657  188-61-61       3  108   53   0.500  -0.350        0
  7658  188-66-61       3  108   53   0.500  -0.350        0
  7659  187-56-10       3  108   54   0.500  -0.440        0
  7660  187-61-61       3  108   54   0.500  -0.440        0
  7661  187-66-62       3  108   54   0.500  -0.440        0
  7662  179-48-337      2  111   54  -0.480   0.250        0
  7663  14-1-365        2  111   58   0.250  -0.350        0
  7664  185-1-365       2  109   58   0.220   0.140        0
  7665  185-10-60       2  109   58   0.220   0.140        0
  7666  185-38-7        2  109   58   0.220   0.140        0
  7667  185-42-355      2  109   58   0.220   0.140        0
  7668  181-38-7       -2  110   58  -0.050  -0.060        0
  7669  181-48-335     -2  110   58  -0.050  -0.060        0
  7670  181-56-11      -2  110   58  -0.050  -0.060        0
  7671  181-61-60      -2  110   58  -0.050  -0.060        0
  7672  181-66-48      -2  110   58  -0.050  -0.060        0
  7673  181-71-34      -2  110   58  -0.050  -0.060        0
  7674  186-48-335      1  109   60  -0.010  -0.460        0
  7675  183-48-335      1  110   59  -0.320  -0.080        0
  7676  182-42-355     -2  110   59  -0.360  -0.110        0
  7677  182-48-335     -2  110   59  -0.360  -0.110        0
  7678  182-56-9       -2  110   59  -0.360  -0.110        0
  7679  182-61-60      -2  110   59  -0.360  -0.110        0
  7680  182-66-48      -2  110   59  -0.360  -0.110        0
  7681  182-71-34      -2  110   59  -0.360  -0.110        0
  7682  180-48-335      1  110   59   0.030   0.350        0
  7683  184-12-80       1  109   61   0.490  -0.280        0
  7684  184-17-60       1  109   61   0.490  -0.280        0
  7685  184-22-62       1  109   61   0.490  -0.280        0
  7686  184-27-6        1  109   61   0.490  -0.280        0
  7687  184-31-335      1  109   61   0.490  -0.280        0
  7688  184-37-32       1  109   61   0.490  -0.280        0
  7689  184-42-299      1  109   61   0.490  -0.280        0
  7690  184-48-337      1  109   61   0.490  -0.280        0
  7691  184-56-12       1  109   61   0.490  -0.280        0
  7692  184-66-55       1  109   61   0.490  -0.280        0
  7693  305-56-11       1  100   63   0.500   0.230        0
  7694  305-61-61       1  100   63   0.500   0.230        0
  7695  305-66-32       1  100   63   0.500   0.230        0
  7696  325-37-344      3  100   64  -0.420  -0.180        0
  7697  325-43-14       3  100   64  -0.420  -0.180        0
  7698  325-48-342      3  100   64  -0.420  -0.180        0
  7699  325-56-12       3  100   64  -0.420  -0.180        0
  7700  325-61-61       3  100   64  -0.420  -0.180        0
  7701  325-66-31       3  100   64  -0.420  -0.180        0
  7702  292-61-61       2  101   66   0.380   0.300        0
  7703  296-26-321      2  101   67   0.300  -0.440        0
  7704  296-31-335      2  101   67   0.300  -0.440        0
  7705  296-37-344      2  101   67   0.300  -0.440        0
  7706  296-43-14       2  101   67   0.300  -0.440        0
  7707  296-48-342      2  101   67   0.300  -0.440        0
  7708  296-56-11       2  101   67   0.300  -0.440        0
  7709  296-60-321      2  101   67   0.300  -0.440        0
  7710  296-65-300     -2  101   67   0.300  -0.440        0
  7711  297-17-4       -2  101   65   0.220   0.320        0
  7712  297-22-54      -2  101   65   0.220   0.320        0
  7713  297-27-11      -2  101   65   0.220   0.320        0
  7714  297-56-12       2  101   65   0.220   0.320        0
  7715  297-61-61       2  101   65   0.220   0.320        0
  7716  297-66-32       2  101   65   0.220   0.320        0
  7717  272-33-177      2  102   66   0.260   0.400        0
  7718  245-48-342      2  104   65   0.210  -0.330        0
  7719  245-56-12       2  104   65   0.210  -0.330        0
  7720  221-33-346     -2  106   63   0.430   0.130        0
  7721  222-48-343      2  106   63   0.470   0.070        0
  7722  222-56-9        2  106   63   0.470   0.070        0
  7723  222-61-60       2  106   63   0.470   0.070        0
  7724  222-66-54       2  106   63   0.470   0.070        0
  7725  222-71-34       2  106   63   0.470   0.070        0
  7726  223-48-343     -2  106   63   0.390   0.100        0
  7727  223-56-9       -2  106   63   0.390   0.100        0
  7728  223-61-60      -2  106   63   0.390   0.100        0
  7729  223-71-35      -2  106   63   0.390   0.100        0
  7730  219-71-365      2  107   64  -0.260  -0.280        0
  7731  102-43-8        3  121   50   0.080   0.490        0
  7732  102-48-344      3  121   50   0.080   0.490        0
  7733  92-71-40        1  122   51   0.150  -0.350        0
  7734  177-17-6        1  111   58  -0.360   0.330        0
  7735  177-38-7        1  111   58  -0.360   0.330        0
  7736  177-42-355      1  111   58  -0.360   0.330        0
  7737  177-48-335      1  111   58  -0.360   0.330        0
  7738  169-38-4       -3  111   58   0.210  -0.190        0
  7739  169-42-334     -3  111   58   0.210  -0.190        0
  7740  169-56-11      -3  111   58   0.210  -0.190        0
  7741  168-1-365      -2  111   58   0.440   0.430        0
  7742  170-38-7        3  111   58   0.400   0.270        0
  7743  170-42-355     -3  111   58   0.400   0.270        0
  7744  170-48-335     -3  111   58   0.400   0.270        0
  7745  170-56-9       -3  111   58   0.400   0.270        0
  7746  170-61-60      -3  111   58   0.400   0.270        0
  7747  170-66-48      -3  111   58   0.400   0.270        0
  7748  170-71-34       3  111   58   0.400   0.270        0
  7749  176-1-280      -2  111   57  -0.250   0.090        0
  7750  176-6-340      -2  111   57  -0.250   0.090        0
  7751  176-11-333     -2  111   57  -0.250   0.090        0
  7752  176-16-332     -2  111   57  -0.250   0.090        0
  7753  176-38-7       -2  111   57  -0.250   0.090        0
  7754  172-12-80       2  111   54   0.060  -0.080        0
  7755  172-17-60       2  111   54   0.060  -0.080        0
  7756  172-22-62       2  111   54   0.060  -0.080        0
  7757  172-27-6        2  111   54   0.060  -0.080        0
  7758  172-31-344      2  111   54   0.060  -0.080        0
  7759  172-36-335      2  111   54   0.060  -0.080        0
  7760  172-48-335      2  111   54   0.060  -0.080        0
  7761  172-56-11       2  111   54   0.060  -0.080        0
  7762  172-61-59       2  111   54   0.060  -0.080        0
  7763  171-43-47       2  111   54   0.060  -0.080        0
  7764  171-48-335      2  111   54   0.060  -0.080        0
  7765  171-56-11       2  111   54   0.060  -0.080        0
  7766  171-60-322      2  111   54   0.060  -0.080        0
  7767  171-65-298      2  111   54   0.060  -0.080        0
  7768  171-71-13       2  111   54   0.060  -0.080        0
  7769  164-33-152     -2  112   54   0.320  -0.340        0
  7770  167-48-335      2  112   54  -0.370  -0.140        0
  7771  167-56-11       2  112   54  -0.370  -0.140        0
  7772  166-61-56       2  112   54  -0.330   0.120        0
  7773  166-66-53       2  112   54  -0.330   0.120        0
  7774  166-71-35       2  112   54  -0.330   0.120        0
  7775  178-48-336      2  111   52  -0.400  -0.300        0
  7776  178-56-11       2  111   52  -0.400  -0.300        0
  7777  174-48-336      3  111   52   0.020   0.060        0
  7778  161-48-336      3  113   52  -0.220  -0.400        0
  7779  161-56-11       3  113   52  -0.220  -0.400        0
  7780  161-61-56       3  113   52  -0.220  -0.400        0
  7781  161-66-54       3  113   52  -0.220  -0.400        0
  7782  161-71-41       3  113   52  -0.220  -0.400        0
  7783  153-48-335      2  114   53   0.200  -0.450        0
  7784  163-48-336      2  113   53  -0.490  -0.030        0
  7785  163-56-11       2  113   53  -0.490  -0.030        0
  7786  163-61-59       2  113   53  -0.490  -0.030        0
  7787  163-66-54       2  113   53  -0.490  -0.030        0
  7788  163-71-41       2  113   53  -0.490  -0.030        0
  7789  156-48-336      2  114   53  -0.450  -0.060        0
  7790  156-56-11       2  114   53  -0.450  -0.060        0
  7791  157-1-358       1  113   56   0.320  -0.350        0
  7792  157-22-54       1  113   56   0.320  -0.350        0
  7793  157-27-11       1  113   56   0.320  -0.350        0
  7794  157-31-348      1  113   56   0.320  -0.350        0
  7795  157-37-22       1  113   56   0.320  -0.350        0
  7796  157-43-47       1  113   56   0.320  -0.350        0
  7797  157-48-335      1  113   56   0.320  -0.350        0
  7798  157-56-9        1  113   56   0.320  -0.350        0
  7799  157-60-322      1  113   56   0.320  -0.350        0
  7800  157-65-298      1  113   56   0.320  -0.350        0
  7801  157-71-365      1  113   56   0.320  -0.350        0
  7802  154-42-341      1  114   56  -0.030   0.110        0
  7803  159-38-4       -3  113   57  -0.030  -0.300        0
  7804  159-56-11      -3  113   57  -0.030  -0.300        0
  7805  147-38-4       -3  115   56  -0.270  -0.450        0
  7806  147-42-334     -3  115   56  -0.270  -0.450        0
  7807  147-56-11      -3  115   56  -0.270  -0.450        0
  7808  149-1-280       1  115   55   0.040   0.490        0
  7809  150-48-335      1  115   54   0.040   0.080        0
  7810  150-56-9        1  115   54   0.040   0.080        0
  7811  137-48-335      1  116   54   0.340  -0.110        0
  7812  137-56-9        1  116   54   0.340  -0.110        0
  7813  137-61-56       1  116   54   0.340  -0.110        0
  7814  137-66-53       1  116   54   0.340  -0.110        0
  7815  136-38-4       -2  116   55   0.420  -0.460        0
  7816  136-42-341     -2  116   55   0.420  -0.460        0
  7817  136-56-11      -2  116   55   0.420  -0.460        0
  7818  152-48-336      2  114   53   0.430  -0.420        0
  7819  129-17-5        1  118   54  -0.320  -0.150        0
  7820  129-27-11       1  118   54  -0.320  -0.150        0
  7821  123-42-348     -2  118   54   0.140  -0.340        0
  7822  128-42-348      1  118   54  -0.400  -0.010        0
  7823  128-56-11       1  118   54  -0.400  -0.010        0
  7824  133-12-362      2  116   56   0.500  -0.390        0
  7825  133-17-61       2  116   56   0.500  -0.390        0
  7826  133-27-6        2  116   56   0.500  -0.390        0
  7827  133-31-335      2  116   56   0.500  -0.390        0
  7828  133-38-4        2  116   56   0.500  -0.390        0
  7829  133-42-341      2  116   56   0.500  -0.390        0
  7830  133-48-335      2  116   56   0.500  -0.390        0
  7831  133-56-9        2  116   56   0.500  -0.390        0
  7832  133-71-365      2  116   56   0.500  -0.390        0
  7833  127-1-365       1  118   55  -0.210   0.360        0
  7834  127-17-1        1  118   55  -0.210   0.360        0
  7835  130-42-341     -2  117   55   0.490   0.130        0
  7836  130-48-335     -2  117   55   0.490   0.130        0
  7837  130-56-9       -2  117   55   0.490   0.130        0
  7838  126-27-11       1  118   55  -0.170  -0.100        0
  7839  135-48-336      2  116   58   0.490  -0.160        0
  7840  135-56-9        2  116   58   0.490  -0.160        0
  7841  122-48-336      2  119   57  -0.440   0.390        0
  7842  120-12-310      2  119   53   0.270  -0.170        0
  7843  120-17-5        2  119   53   0.270  -0.170        0
  7844  120-27-6        2  119   53   0.270  -0.170        0
  7845  120-31-335      2  119   53   0.270  -0.170        0
  7846  120-37-32       2  119   53   0.270  -0.170        0
  7847  120-42-341      2  119   53   0.270  -0.170        0
  7848  120-48-336      2  119   53   0.270  -0.170        0
  7849  120-56-10       2  119   53   0.270  -0.170        0
  7850  120-61-59       2  119   53   0.270  -0.170        0
  7851  120-65-292      2  119   53   0.270  -0.170        0
  7852  120-71-365      2  119   53   0.270  -0.170        0
  7853  118-38-4       -2  120   53  -0.370   0.070        0
  7854  118-42-341     -2  120   53  -0.370   0.070        0
  7855  118-48-349     -2  120   53  -0.370   0.070        0
  7856  118-56-10      -2  120   53  -0.370   0.070        0
  7857  107-27-69       2  120   53   0.400  -0.130        0
  7858  114-48-336     -3  120   54   0.010   0.310        0
  7859  114-56-10      -3  120   54   0.010   0.310        0
  7860  112-43-8        1  120   52   0.050   0.190        0
  7861  112-48-335      1  120   52   0.050   0.190        0
  7862  112-56-9        1  120   52   0.050   0.190        0
  7863  112-61-52       1  120   52   0.050   0.190        0
  7864  112-66-45       1  120   52   0.050   0.190        0
  7865  112-71-13       1  120   52   0.050   0.190        0
  7866  104-60-299      1  121   52  -0.110   0.050        0
  7867  104-65-292      1  121   52  -0.110   0.050        0
  7868  100-22-61       2  121   52   0.310   0.320        0
  7869  101-61-53       2  121   51   0.160  -0.190        0
  7870  97-22-54        1  121   51   0.430  -0.190        0
  7871  97-27-10        1  121   51   0.430  -0.190        0
  7872  98-43-8         1  121   51   0.390   0.430        0
  7873  98-48-348       1  121   51   0.390   0.430        0
  7874  98-56-10        1  121   51   0.390   0.430        0
  7875  98-61-52        1  121   51   0.390   0.430        0
  7876  98-66-45        1  121   51   0.390   0.430        0
  7877  105-43-69       2  121   54  -0.300   0.020        0
  7878  105-48-348      2  121   54  -0.300   0.020        0
  7879  105-56-10       2  121   54  -0.300   0.020        0
  7880  105-61-55       2  121   54  -0.300   0.020        0
  7881  105-66-45       2  121   54  -0.300   0.020        0
  7882  99-5-1          1  121   54   0.310  -0.110        0
  7883  106-56-10       2  121   57  -0.410  -0.270        0
  7884  106-61-59       2  121   57  -0.410  -0.270        0
  7885  106-66-45       2  121   57  -0.410  -0.270        0
  7886  106-71-40       2  121   57  -0.410  -0.270        0
  7887  95-71-40        3  122   58  -0.340  -0.480        0
  7888  3393-25-338     2    3   12  -0.200  -0.450        0
  7889  3312-25-338     2    9   13  -0.340  -0.460        0
  7890  3288-25-341     2   11   12  -0.080   0.390        0
  7891  3282-25-341     2   11   14   0.250  -0.480        0
  7892  3259-25-341    -2   14   15   0.410  -0.150        0
  7893  3222-25-229     1   16   24  -0.190   0.120        0
  7894  3213-25-337     2   16   20   0.420   0.420        0
  7895  3199-25-339    -2   17   26   0.350   0.320        0
  7896  3175-25-339     2   18   24   0.460   0.500        0
  7897  3170-25-342     2   19   22  -0.090   0.450        0
  7898  3200-25-336    -2   18   36  -0.090   0.180        0
  7899  3154-25-336     2   20   32   0.120  -0.340        0
  7900  3138-25-336     2   20   32   0.390   0.470        0
  7901  3046-25-344     2   25   31  -0.370  -0.450        0
  7902  3036-25-344     2   25   31   0.170  -0.450        0
  7903  3038-25-339    -3   25   35   0.140  -0.430        0
  7904  2684-25-3       3   37   15  -0.170   0.320        0
  7905  2919-25-351     2   30   39  -0.340  -0.310        0
  7906  2719-25-113     2   36   59  -0.090  -0.020        0
  7907  1933-25-180    -2   50   61   0.220  -0.390        0
  7908  1387-25-60     -2   60   61  -0.480  -0.030        0
  7909  1427-25-27      1   58   59   0.410  -0.180        0
  7910  1661-25-60      1   53   73   0.010  -0.030        0
  7911  1390-25-365    -2   60   65  -0.440  -0.360        0
  7912  1904-25-317     2   51   82  -0.460   0.010        0
  7913  1379-25-91      2   60   85  -0.130  -0.310        0
  7914  1796-25-321     3   52   90  -0.400  -0.190        0
  7915  1753-25-321     2   52   88  -0.170   0.250        0
  7916  1705-25-328     2   52   92   0.320   0.320        0
  7917  1064-25-125    -2   67   57   0.140  -0.040        0
  7918  831-25-335     -2   74   59  -0.360  -0.310        0
  7919  1066-25-335     2   67   90  -0.100   0.210        0
  7920  723-25-363      2   78   23   0.220  -0.320        0
  7921  568-25-307     -2   85   64   0.040   0.360        0
  7922  544-25-309      1   86   66  -0.120  -0.130        0
  7923  780-25-329      1   75   68   0.400   0.330        0
  7924  526-25-307      1   87   66  -0.390  -0.200        0
  7925  370-25-308     -2   96   65  -0.020   0.090        0
  7926  265-25-7       -2  103   62   0.020   0.150        0
  7927  266-25-43       2  103   58   0.030   0.070        0
  7928  232-25-314     -3  105   58   0.320   0.040        0
  7929  100-25-316      2  121   52   0.310   0.320        0
  7930  3205-26-8       2   17   18  -0.170   0.310        0
  7931  3174-26-7       2   18   22   0.370   0.330        0
  7932  3163-26-13      2   20   24  -0.360   0.110        0
  7933  3100-26-12     -2   22   17   0.490   0.480        0
  7934  3097-26-7       2   22   22   0.470   0.410        0
  7935  3096-26-12      2   22   24   0.360   0.360        0
  7936  3053-26-11      2   24   21   0.450   0.010        0
  7937  3065-26-12     -2   24   17  -0.210   0.440        0
  7938  3033-26-11     -2   25   19   0.250   0.420        0
  7939  2989-26-12      2   26   22   0.410  -0.480        0
  7940  3083-26-152    -2   23   34   0.150  -0.270        0
  7941  3040-26-13      2   25   28   0.050   0.470        0
  7942  2997-26-123     2   26   56   0.230  -0.360        0
  7943  3016-26-123     2   26   58  -0.270  -0.350        0
  7944  2953-26-14      2   28   25   0.330  -0.430        0
  7945  2963-26-14      2   28   22  -0.140   0.270        0
  7946  2968-26-13     -2   28   20  -0.330   0.290        0
  7947  2906-26-13     -2   30   20   0.420   0.380        0
  7948  2905-26-13     -2   30   25   0.430  -0.080        0
  7949  2874-26-14      2   31   23   0.420  -0.390        0
  7950  2780-26-13      3   34   18   0.470   0.410        0
  7951  2779-26-13     -2   34   20   0.480   0.040        0
  7952  2787-26-14      2   34   24   0.410   0.000        0
  7953  2790-26-14     -2   34   25   0.450   0.300        0
  7954  2772-26-13      3   35   17  -0.420  -0.340        0
  7955  2639-26-13     -2   38   20   0.380   0.350        0
  7956  2974-26-15      2   27   38   0.320  -0.410        0
  7957  2937-26-14     -2   29   37   0.120   0.130        0
  7958  2885-26-14      2   31   34  -0.120   0.110        0
  7959  2867-26-14      2   32   33  -0.400  -0.390        0
  7960  2837-26-14      2   32   31   0.210  -0.370        0
  7961  2748-26-15      2   35   31   0.120  -0.470        0
  7962  2694-26-15      2   36   31   0.460  -0.180        0
  7963  2933-26-15      2   29   28   0.180  -0.410        0
  7964  2851-26-14      2   32   28   0.010  -0.450        0
  7965  2711-26-15      2   36   29   0.150  -0.460        0
  7966  2928-26-18      2   29   40   0.320  -0.470        0
  7967  2811-26-14      2   32   39   0.150  -0.380        0
  7968  2808-26-18      2   33   39   0.490  -0.250        0
  7969  2766-26-47      2   35   48  -0.090  -0.190        0
  7970  2789-26-18      2   34   39   0.250   0.170        0
  7971  2696-26-18      2   36   44   0.360   0.430        0
  7972  2977-26-123    -2   27   60   0.460  -0.140        0
  7973  2914-26-120     2   30   52  -0.020   0.490        0
  7974  2930-26-123     2   30   61  -0.440  -0.430        0
  7975  2898-26-120     2   31   52  -0.480   0.190        0
  7976  2841-26-120     2   32   57   0.310  -0.290        0
  7977  2774-26-120     2   35   58  -0.270   0.010        0
  7978  2762-26-26      2   35   56  -0.270   0.450        0
  7979  2733-26-1       2   36   52  -0.430   0.190        0
  7980  2742-26-26      2   36   54   0.370   0.500        0
  7981  2670-26-18      2   37   54   0.400   0.500        0
  7982  2660-26-120     2   38   59   0.020  -0.210        0
  7983  2931-26-22      2   29   63   0.210   0.430        0
  7984  2595-26-12     -2   40   19   0.440   0.310        0
  7985  2596-26-1      -2   40   18   0.400   0.360        0
  7986  2589-26-11      3   40   15   0.390   0.310        0
  7987  2588-26-1       3   40   16   0.470   0.120        0
  7988  2564-26-12      3   41   18   0.090   0.390        0
  7989  2529-26-12     -2   42   20   0.440   0.370        0
  7990  2449-26-11      2   44   25   0.360   0.310        0
  7991  2492-26-13     -2   43   22   0.400   0.420        0
  7992  2452-26-12     -2   44   20   0.430   0.330        0
  7993  2303-26-1      -2   46   17   0.370  -0.050        0
  7994  2296-26-12     -2   46   21   0.420   0.370        0
  7995  2301-26-14     -2   46   23   0.460   0.350        0
  7996  2300-26-11     -2   46   25   0.280   0.370        0
  7997  2220-26-11     -2   47   26   0.390  -0.250        0
  7998  2089-26-1      -2   48   23   0.410  -0.170        0
  7999  2088-26-12     -2   48   24   0.420  -0.200        0
  8000  2448-26-11      2   44   28   0.410   0.170        0
  8001  2099-26-1      -2   48   27   0.390  -0.470        0
  8002  1922-26-1      -2   50   27   0.340   0.340        0
  8003  1983-26-11      2   50   30  -0.310   0.330        0
  8004  1930-26-14      3   50   33   0.280   0.290        0
  8005  2649-26-27     -2   38   48   0.280   0.360        0
  8006  2505-26-32      2   43   54   0.100  -0.410        0
  8007  2464-26-29      1   44   53   0.180   0.000        0
  8008  2388-26-32      1   46   56  -0.480   0.190        0
  8009  2412-26-20     -2   45   62   0.060  -0.090        0
  8010  2289-26-29      2   47   56  -0.490   0.150        0
  8011  2236-26-19      2   47   56   0.200   0.380        0
  8012  2183-26-29      2   48   54  -0.270   0.460        0
  8013  2215-26-104     2   47   74   0.420  -0.420        0
  8014  2162-26-102     2   48   68  -0.150   0.180        0
  8015  2130-26-69      1   48   63   0.080  -0.340        0
  8016  1990-26-67      2   50   63  -0.430   0.180        0
  8017  2103-26-67     -2   48   65   0.350   0.000        0
  8018  2055-26-102     1   49   65  -0.200   0.420        0
  8019  1997-26-183     1   50   69  -0.470   0.420        0
  8020  2339-26-104     2   46   75   0.080   0.460        0
  8021  2100-26-117     2   48   82   0.090   0.160        0
  8022  2010-26-75      1   49   75   0.370  -0.380        0
  8023  1428-26-1       3   58   24   0.140  -0.230        0
  8024  1383-26-8       3   60   25  -0.370   0.300        0
  8025  1819-26-1      -2   52   31  -0.470   0.240        0
  8026  1748-26-11     -2   52   31  -0.010   0.400        0
  8027  1702-26-11     -2   52   27   0.370  -0.120        0
  8028  1710-26-1      -2   52   27   0.410   0.470        0
  8029  1663-26-1      -2   53   27  -0.210   0.370        0
  8030  1612-26-11      2   54   32  -0.170  -0.110        0
  8031  1407-26-11     -2   59   34  -0.080   0.380        0
  8032  1364-26-11      2   60   31   0.410   0.480        0
  8033  1266-26-8      -2   62   31   0.360  -0.300        0
  8034  1336-26-11     -2   61   34  -0.090   0.380        0
  8035  1337-26-11     -2   61   32  -0.090   0.490        0
  8036  1264-26-1      -2   62   33   0.250  -0.420        0
  8037  1849-26-40     -2   51   62   0.290   0.170        0
  8038  1832-26-40      3   51   57   0.450   0.190        0
  8039  1690-26-33      2   53   59  -0.480   0.370        0
  8040  1691-26-1       2   53   58  -0.480   0.490        0
  8041  1417-26-60      2   59   62  -0.440   0.200        0
  8042  1386-26-34     -3   59   62   0.290   0.370        0
  8043  1329-26-35      2   61   58   0.170   0.170        0
  8044  1278-26-33      2   62   62   0.120   0.070        0
  8045  1879-26-69     -2   51   70  -0.020   0.200        0
  8046  1811-26-68     -2   52   69  -0.400  -0.390        0
  8047  1837-26-60      1   51   70   0.400  -0.120        0
  8048  1907-26-68      2   50   68   0.450   0.310        0
  8049  1888-26-68      2   51   66  -0.240   0.070        0
  8050  1779-26-67      1   52   66  -0.250  -0.250        0
  8051  1619-26-67     -2   54   65  -0.300  -0.490        0
  8052  1723-26-60      2   52   66   0.320  -0.480        0
  8053  1694-26-68     -2   53   68  -0.490   0.220        0
  8054  1658-26-67     -2   53   67   0.090  -0.150        0
  8055  1655-26-69     -2   53   70   0.090   0.040        0
  8056  1614-26-69      1   54   70  -0.220  -0.280        0
  8057  1596-26-69      1   54   71  -0.340  -0.210        0
  8058  1630-26-69      1   54   72  -0.490   0.060        0
  8059  1552-26-74      1   55   69  -0.080   0.070        0
  8060  1467-26-76      2   57   63   0.110   0.410        0
  8061  1470-26-74      2   57   66  -0.120  -0.020        0
  8062  1455-26-81      1   57   66   0.450  -0.020        0
  8063  1443-26-81      2   58   66  -0.430   0.010        0
  8064  1465-26-74      1   57   67   0.180  -0.210        0
  8065  1440-26-74     -2   57   68   0.260  -0.430        0
  8066  1474-26-75      1   57   70  -0.200   0.140        0
  8067  1453-26-71      1   57   69   0.370  -0.090        0
  8068  1488-26-70      2   57   74  -0.440   0.080        0
  8069  1502-26-71     -2   56   74   0.260  -0.350        0
  8070  1477-26-60      2   57   73  -0.240   0.100        0
  8071  1458-26-153     2   57   74   0.250  -0.410        0
  8072  1429-26-71     -2   58   74   0.100  -0.440        0
  8073  1397-26-71     -2   59   68   0.290   0.090        0
  8074  1416-26-76     -2   59   63  -0.320  -0.110        0
  8075  1312-26-88      1   61   66   0.320   0.440        0
  8076  1359-26-82     -2   60   73   0.200  -0.410        0
  8077  1333-26-82     -2   61   73  -0.230  -0.450        0
  8078  1295-26-84      1   62   73  -0.150  -0.020        0
  8079  1892-26-193    -2   51   83  -0.340   0.110        0
  8080  1940-26-109    -2   50   80   0.280  -0.400        0
  8081  1659-26-71     -2   53   76   0.120   0.090        0
  8082  1671-26-60     -2   53   75  -0.070   0.280        0
  8083  1627-26-70      2   54   76  -0.460  -0.100        0
  8084  1677-26-83      2   53   81  -0.080  -0.450        0
  8085  1602-26-83      2   54   80  -0.010  -0.270        0
  8086  1604-26-83      2   54   81  -0.010  -0.320        0
  8087  1669-26-109     2   53   85  -0.200  -0.230        0
  8088  1622-26-109     2   54   85  -0.400  -0.090        0
  8089  1553-26-88      2   55   84  -0.060  -0.230        0
  8090  1563-26-88      2   55   83  -0.290  -0.170        0
  8091  1586-26-84      2   54   81   0.490   0.170        0
  8092  1507-26-75      2   56   77   0.100   0.070        0
  8093  1495-26-60     -2   56   77   0.410   0.170        0
  8094  1484-26-75      2   57   77  -0.320  -0.250        0
  8095  1489-26-88      2   57   82  -0.410  -0.370        0
  8096  1464-26-88      2   57   83   0.010  -0.170        0
  8097  1414-26-95      2   59   85  -0.470   0.210        0
  8098  1395-26-88      2   59   79   0.390   0.000        0
  8099  1377-26-83      2   60   79   0.080  -0.260        0
  8100  1375-26-88      2   60   81   0.150  -0.470        0
  8101  1396-26-70      2   59   77   0.280  -0.350        0
  8102  1415-26-84      1   59   76  -0.450  -0.160        0
  8103  1300-26-213     2   62   83  -0.400   0.490        0
  8104  1276-26-95      2   62   84   0.130   0.470        0
  8105  1354-26-95      2   61   87  -0.480  -0.260        0
  8106  1358-26-95      3   61   87  -0.290  -0.350        0
  8107  846-26-13       3   73   19  -0.300  -0.090        0
  8108  833-26-13      -2   73   21   0.470   0.130        0
  8109  827-26-13      -2   74   22  -0.220   0.270        0
  8110  845-26-13       2   73   24  -0.360   0.190        0
  8111  1105-26-118     2   66   36   0.240   0.350        0
  8112  1120-26-13      2   66   38  -0.220  -0.250        0
  8113  1088-26-91      3   67   33  -0.460  -0.360        0
  8114  809-26-13       3   74   30   0.140  -0.080        0
  8115  1235-26-36     -2   63   61  -0.230  -0.290        0
  8116  1239-26-33     -3   63   60  -0.270  -0.140        0
  8117  1227-26-33     -2   63   59   0.420   0.470        0
  8118  1219-26-36     -3   63   60   0.390   0.190        0
  8119  1168-26-35      2   65   58  -0.240  -0.030        0
  8120  1140-26-35     -3   65   58   0.410  -0.220        0
  8121  1160-26-36     -2   65   60  -0.120   0.190        0
  8122  1121-26-36     -3   66   60  -0.240   0.120        0
  8123  1080-26-36      1   67   62  -0.320  -0.350        0
  8124  1048-26-36     -3   67   61   0.360  -0.030        0
  8125  1075-26-36     -3   67   60  -0.170  -0.010        0
  8126  1016-26-36      3   68   59  -0.020  -0.340        0
  8127  1011-26-36     -3   68   59   0.090  -0.020        0
  8128  1083-26-35      2   67   58  -0.360  -0.320        0
  8129  997-26-244      2   68   57   0.210  -0.170        0
  8130  910-26-166     -2   71   57  -0.500   0.190        0
  8131  1212-26-64      3   64   71  -0.430  -0.430        0
  8132  1131-26-349     2   66   63  -0.400  -0.140        0
  8133  1188-26-60      2   64   69   0.300  -0.250        0
  8134  1076-26-341    -2   67   72  -0.250  -0.350        0
  8135  1000-26-18      1   68   71   0.160  -0.460        0
  8136  1095-26-18      1   66   65   0.370   0.010        0
  8137  1035-26-61      1   68   65  -0.450  -0.190        0
  8138  1037-26-60      1   68   63  -0.480   0.020        0
  8139  878-26-60      -2   72   63  -0.310  -0.400        0
  8140  1250-26-84     -2   62   75   0.260   0.090        0
  8141  1251-26-84     -2   62   75   0.380  -0.300        0
  8142  1195-26-81     -2   64   76  -0.170   0.110        0
  8143  1110-26-62      1   66   76  -0.060   0.010        0
  8144  1044-26-82      2   67   82   0.270  -0.350        0
  8145  1017-26-62      2   69   76   0.110   0.110        0
  8146  973-26-95       2   69   85  -0.400   0.040        0
  8147  870-26-95       3   72   86  -0.190  -0.340        0
  8148  3417-26-95     -2   74   85  -0.010   0.310        0
  8149  1246-26-305     3   63   88  -0.490  -0.470        0
  8150  1593-26-18      2   67   89  -0.400  -0.090        0
  8151  757-26-141     -2   76   21   0.230  -0.240        0
  8152  758-26-1       -2   76   19   0.220  -0.260        0
  8153  722-26-64       2   78   17   0.200  -0.290        0
  8154  737-26-1        2   77   18   0.210  -0.240        0
  8155  656-26-1        2   82   15  -0.130   0.040        0
  8156  602-26-1        2   84   16   0.060   0.400        0
  8157  598-26-1        3   85   22  -0.430  -0.420        0
  8158  720-26-1        2   79   29  -0.460  -0.420        0
  8159  674-26-43      -2   81   64   0.410  -0.220        0
  8160  673-26-49      -2   81   67   0.440   0.490        0
  8161  810-26-43       2   74   63   0.250  -0.200        0
  8162  785-26-65       2   75   80   0.460   0.260        0
  8163  681-26-96       2   81   81  -0.070  -0.370        0
  8164  608-26-64      -2   84   82   0.020   0.400        0
  8165  559-26-60       2   85   85   0.320   0.460        0
  8166  731-26-98       3   78   92  -0.160  -0.130        0
  8167  683-26-91       3   81   91  -0.250   0.160        0
  8168  496-26-56       2   88   61   0.370   0.100        0
  8169  408-26-46       3   94   56  -0.160   0.440        0
  8170  391-26-72      -2   95   59   0.070  -0.370        0
  8171  451-26-85       3   91   85  -0.330   0.270        0
  8172  477-26-63       1   89   75   0.350   0.200        0
  8173  302-26-47       3  101   58  -0.160   0.040        0
  8174  295-26-47       3  101   58   0.380  -0.350        0
  8175  281-26-47       3  102   58   0.150  -0.160        0
  8176  270-26-41       3  103   58  -0.400  -0.350        0
  8177  278-26-11      -2  102   60   0.180   0.060        0
  8178  250-26-11      -2  104   61  -0.320  -0.020        0
  8179  3333-27-99      2    7   30   0.410   0.170        0
  8180  3176-27-347     2   18   20   0.330   0.350        0
  8181  3055-27-126     3   24   61   0.320  -0.330        0
  8182  2747-27-253     2   35   49   0.140   0.070        0
  8183  995-27-236     -2   68   34   0.340   0.360        0
  8184  778-27-348      2   75   77   0.270  -0.450        0
  8185  718-27-151     -2   79   84  -0.450  -0.470        0
  8186  3239-30-335     2   15   68   0.360   0.320        0
  8187  3181-30-185    -2   18   68   0.150  -0.170        0
  8188  3211-30-274     2   16   70   0.470   0.330        0
  8189  3189-30-181    -2   18   69  -0.120  -0.100        0
  8190  3198-30-274     2   17   70   0.420   0.100        0
  8191  3192-30-274     2   18   70  -0.380   0.170        0
  8192  3124-30-213     2   21   69   0.060   0.230        0
  8193  2832-30-108    -2   33   45  -0.420  -0.280        0
  8194  2673-30-244    -2   37   51   0.250  -0.470        0
  8195  2876-30-99     -2   31   56   0.320  -0.100        0
  8196  2774-30-91      2   35   58  -0.270   0.010        0
  8197  2733-30-27      2   36   52  -0.430   0.190        0
  8198  2603-30-29     -2   40   50   0.160   0.010        0
  8199  2652-30-27     -2   38   53   0.240  -0.480        0
  8200  2576-30-30      1   41   55  -0.270  -0.440        0
  8201  2542-30-30     -2   42   56   0.000  -0.460        0
  8202  2505-30-29      2   43   54   0.100  -0.410        0
  8203  2355-30-1      -2   46   51   0.010   0.340        0
  8204  2464-30-29      1   44   53   0.180   0.000        0
  8205  2357-30-30      2   46   54   0.090   0.100        0
  8206  2373-30-30     -3   46   55  -0.450   0.050        0
  8207  2446-30-30     -2   45   57  -0.360   0.450        0
  8208  2445-30-121     1   45   60  -0.480  -0.370        0
  8209  2237-30-34      2   47   60   0.160  -0.470        0
  8210  2137-30-35     -2   48   58   0.040  -0.450        0
  8211  2109-30-30      2   48   56   0.230  -0.240        0
  8212  2038-30-1       2   49   58  -0.350   0.360        0
  8213  2059-30-35     -2   49   59  -0.270   0.080        0
  8214  2227-30-273    -3   47   65   0.310  -0.300        0
  8215  2056-30-18      1   49   64  -0.190  -0.080        0
  8216  2019-30-111    -2   49   64   0.300   0.020        0
  8217  1998-30-244     1   50   68  -0.470   0.150        0
  8218  2086-30-14      2   48   70   0.460   0.360        0
  8219  2069-30-244    -2   49   72  -0.350  -0.180        0
  8220  2081-30-105     2   48   71   0.460   0.340        0
  8221  2246-30-335     2   47   76   0.000   0.210        0
  8222  2001-30-305     2   49   83   0.470   0.370        0
  8223  1617-30-121     1   54   61  -0.220   0.030        0
  8224  1391-30-43     -3   59   62   0.250   0.400        0
  8225  1427-30-11      1   58   59   0.410  -0.180        0
  8226  1400-30-42      2   59   60   0.140  -0.400        0
  8227  1619-30-57     -2   54   65  -0.300  -0.490        0
  8228  1693-30-51      1   52   72   0.470   0.090        0
  8229  1500-30-56     -2   56   65   0.270   0.130        0
  8230  1312-30-349     1   61   66   0.320   0.440        0
  8231  1874-30-1       2   51   86  -0.010   0.200        0
  8232  1857-30-157     1   51   83   0.150  -0.340        0
  8233  1843-30-213    -2   51   82   0.350  -0.250        0
  8234  1846-30-43     -2   52   78  -0.380   0.430        0
  8235  1676-30-79      2   53   82  -0.240   0.140        0
  8236  1574-30-246     2   55   85  -0.410  -0.030        0
  8237  1368-30-60     -2   60   77   0.310  -0.350        0
  8238  1366-30-43      2   60   79   0.350  -0.260        0
  8239  1348-30-43      2   61   81  -0.350   0.110        0
  8240  1320-30-335     2   61   84   0.140   0.430        0
  8241  1276-30-121     2   62   84   0.130   0.470        0
  8242  1751-30-305     2   52   91  -0.140  -0.410        0
  8243  1752-30-305     2   52   87  -0.130   0.080        0
  8244  1749-30-305     2   52   87  -0.090  -0.310        0
  8245  1754-30-130     1   52   88  -0.170  -0.370        0
  8246  812-30-6       -2   74   19   0.160   0.430        0
  8247  1235-30-43     -2   63   61  -0.230  -0.290        0
  8248  1197-30-43      1   64   67   0.070   0.090        0
  8249  1187-30-182    -3   64   70   0.300  -0.050        0
  8250  1194-30-1       2   64   75   0.180  -0.330        0
  8251  529-30-351     -2   86   63   0.500  -0.490        0
  8252  686-30-127     -3   81   63  -0.400  -0.140        0
  8253  488-30-44       3   89   60  -0.480   0.390        0
  8254  485-30-351     -2   89   58  -0.320   0.400        0
  8255  476-30-60       3   89   62   0.400  -0.010        0
  8256  408-30-349      3   94   56  -0.160   0.440        0
  8257  402-30-213      3   94   58   0.380  -0.030        0
  8258  366-30-42       2   96   68   0.170   0.420        0
  8259  301-30-342      3  101   58  -0.120   0.460        0
  8260  270-30-342      3  103   58  -0.400  -0.350        0
  8261  3376-31-2       2    7   14  -0.080  -0.350        0
  8262  3351-31-101     2    6   20  -0.490  -0.230        0
  8263  3272-31-104     3   12   67  -0.010   0.340        0
  8264  3145-31-193    -2   20   24   0.290   0.300        0
  8265  3161-31-244     2   20   28  -0.190   0.450        0
  8266  3038-31-1      -3   25   35   0.140  -0.430        0
  8267  3243-31-1       2   15   68   0.130   0.320        0
  8268  3256-31-104    -2   15   67  -0.440  -0.300        0
  8269  3208-31-273    -2   17   67  -0.260  -0.460        0
  8270  3153-31-348    -2   20   69   0.140  -0.390        0
  8271  3164-31-283    -2   20   70  -0.430  -0.450        0
  8272  3093-31-104     2   23   68  -0.290  -0.200        0
  8273  2787-31-57      2   34   24   0.410   0.000        0
  8274  2734-31-1      -2   36   18  -0.490   0.480        0
  8275  2823-31-196     2   32   29  -0.330   0.270        0
  8276  2927-31-29     -3   29   42   0.090  -0.390        0
  8277  2743-31-220     2   35   50   0.180   0.180        0
  8278  2756-31-252    -2   35   48  -0.090  -0.230        0
  8279  2699-31-1       2   36   50   0.290  -0.310        0
  8280  2687-31-266    -2   37   49  -0.130  -0.090        0
  8281  2615-31-1       2   40   32  -0.360   0.240        0
  8282  2650-31-60      2   38   47   0.200   0.120        0
  8283  2558-31-121    -2   41   50   0.300  -0.440        0
  8284  2475-31-120    -2   44   55  -0.130   0.050        0
  8285  2460-31-120    -2   44   55   0.250   0.340        0
  8286  2427-31-120    -2   45   58  -0.360   0.040        0
  8287  2326-31-121    -3   46   62   0.240  -0.260        0
  8288  2212-31-121    -2   48   60  -0.420  -0.470        0
  8289  1991-31-36     -2   50   56  -0.390   0.310        0
  8290  1958-31-36     -2   50   57  -0.010   0.100        0
  8291  2057-31-121     2   49   60  -0.160   0.180        0
  8292  1951-31-36     -2   50   62   0.070   0.140        0
  8293  2014-31-121     1   49   66   0.340   0.000        0
  8294  1974-31-120     1   50   66  -0.160  -0.030        0
  8295  2102-31-119    -2   48   70   0.340  -0.260        0
  8296  2054-31-91     -2   49   70  -0.200  -0.350        0
  8297  2339-31-78      2   46   75   0.080   0.460        0
  8298  2330-31-196     2   46   82   0.180  -0.460        0
  8299  2100-31-78      2   48   82   0.090   0.160        0
  8300  2043-31-211    -2   49   79  -0.020   0.370        0
  8301  1849-31-1      -2   51   62   0.290   0.170        0
  8302  1471-31-113    -2   57   59  -0.270   0.440        0
  8303  1461-31-40     -2   57   62   0.260   0.500        0
  8304  1321-31-40      2   61   60   0.170   0.350        0
  8305  1306-31-113    -2   61   60   0.400  -0.400        0
  8306  1307-31-113     2   61   59   0.360   0.210        0
  8307  1305-31-121     2   62   61  -0.490   0.260        0
  8308  1886-31-119     1   51   71  -0.210   0.110        0
  8309  1879-31-119    -2   51   70  -0.020   0.200        0
  8310  1779-31-119     1   52   66  -0.250  -0.250        0
  8311  1724-31-118     2   52   65   0.360   0.130        0
  8312  1694-31-119    -2   53   68  -0.490   0.220        0
  8313  1695-31-120     2   52   68   0.480  -0.330        0
  8314  1596-31-119     1   54   71  -0.340  -0.210        0
  8315  1683-31-68     -2   53   74  -0.420   0.170        0
  8316  1552-31-117     1   55   69  -0.080   0.070        0
  8317  1533-31-118     1   55   67   0.350  -0.310        0
  8318  1813-31-117     2   55   66   0.460   0.040        0
  8319  1538-31-117    -2   55   66   0.310  -0.280        0
  8320  1470-31-117     2   57   66  -0.120  -0.020        0
  8321  1453-31-117     1   57   69   0.370  -0.090        0
  8322  1502-31-120    -2   56   74   0.260  -0.350        0
  8323  1416-31-62     -2   59   63  -0.320  -0.110        0
  8324  1784-31-148    -2   52   76  -0.260  -0.240        0
  8325  1659-31-114    -2   53   76   0.120   0.090        0
  8326  1671-31-114    -2   53   75  -0.070   0.280        0
  8327  1602-31-114     2   54   80  -0.010  -0.270        0
  8328  1507-31-114     2   56   77   0.100   0.070        0
  8329  1514-31-114    -2   56   76  -0.090   0.320        0
  8330  1495-31-69     -2   56   77   0.410   0.170        0
  8331  1484-31-114     2   57   77  -0.320  -0.250        0
  8332  1483-31-114     2   57   80  -0.220   0.230        0
  8333  1239-31-113    -3   63   60  -0.270  -0.140        0
  8334  1234-31-113    -3   63   59  -0.420   0.470        0
  8335  1099-31-117    -3   66   63   0.330  -0.340        0
  8336  853-31-118      2   72   63   0.340  -0.300        0
  8337  720-31-1        2   79   29  -0.460  -0.420        0
  8338  729-31-118     -2   78   64   0.080  -0.360        0
  8339  679-31-118     -2   81   66   0.020  -0.500        0
  8340  810-31-118      2   74   63   0.250  -0.200        0
  8341  299-31-59      -2  101   60  -0.040   0.360        0
  8342  3281-32-351     2   11   16   0.350  -0.460        0
  8343  3347-32-97      3    6   64  -0.200  -0.130        0
  8344  3051-32-152    -2   24   20   0.220  -0.290        0
  8345  3004-32-94     -2   26   46   0.110   0.130        0
  8346  2997-32-94      2   26   56   0.230  -0.360        0
  8347  3016-32-94      2   26   58  -0.270  -0.350        0
  8348  3055-32-94      3   24   61   0.320  -0.330        0
  8349  2880-32-95      2   31   50   0.240  -0.210        0
  8350  2883-32-196     2   31   47   0.160  -0.460        0
  8351  2977-32-96     -2   27   60   0.460  -0.140        0
  8352  2914-32-96      2   30   52  -0.020   0.490        0
  8353  2930-32-96      2   30   61  -0.440  -0.430        0
  8354  2869-32-96      2   32   62  -0.410   0.190        0
  8355  2898-32-96      2   31   52  -0.480   0.190        0
  8356  2841-32-96      2   32   57   0.310  -0.290        0
  8357  2742-32-95      2   36   54   0.370   0.500        0
  8358  2956-32-95      2   28   65   0.260  -0.110        0
  8359  2441-32-216     3   45   20  -0.310   0.430        0
  8360  2477-32-137     3   44   27  -0.200   0.450        0
  8361  2334-32-335     2   46   71   0.240  -0.150        0
  8362  2314-32-342     2   46   69   0.280   0.420        0
  8363  2331-32-29      2   46   77   0.190  -0.240        0
  8364  2128-32-154     1   48   76   0.070  -0.440        0
  8365  2092-32-154     1   48   76   0.410  -0.400        0
  8366  2085-32-154     1   48   78   0.450   0.070        0
  8367  1278-32-50      2   62   62   0.120   0.070        0
  8368  1791-32-119    -2   52   72  -0.250  -0.010        0
  8369  1131-32-62      2   66   63  -0.400  -0.140        0
  8370  1035-32-71      1   68   65  -0.450  -0.190        0
  8371  2799-35-122    -2   34   44   0.030   0.500        0
  8372  861-35-329      2   72   31   0.200   0.390        0
  8373  3038-36-52     -3   25   35   0.140  -0.430        0
  8374  2937-36-86     -2   29   37   0.120   0.130        0
  8375  1428-36-91      3   58   24   0.140  -0.230        0
  8376  1106-36-164     3   66   37   0.310  -0.480        0
  8377  727-36-333     -2   78   79   0.060  -0.400        0
  8378  492-36-108      3   88   61   0.410   0.400        0
  8379  380-36-78      -2   96   63  -0.470  -0.460        0
  8380  3318-37-364    -2    8   24   0.430  -0.450        0
  8381  2476-37-182     2   44   60   0.060   0.090        0
  8382  2437-37-1       2   45   60  -0.440   0.440        0
  8383  1436-37-201     2   57   71   0.220   0.120        0
  8384  974-37-342      3   69   60  -0.370   0.450        0
  8385  981-37-84       2   68   83   0.110  -0.470        0
  8386  814-37-58       2   74   81   0.120  -0.480        0
  8387  697-37-41      -2   80   85  -0.150  -0.360        0
  8388  659-37-16      -3   82   78   0.040   0.380        0
1
                            STRESS PERIOD NO.    1, LENGTH =   366.0000    
                            -----------------------------------------------

                              NUMBER OF TIME STEPS =     1

                               MULTIPLIER FOR DELT =     1.000

                            INITIAL TIME STEP SIZE =   366.0000    

    408 WELLS



                         ET SURFACE
 READING ON UNIT   14 WITH FORMAT: (15F5.0)            



            EVAPOTRANSPIRATION RATE
 READING ON UNIT   14 WITH FORMAT: (15F5.0)            



                   EXTINCTION DEPTH
 READING ON UNIT   14 WITH FORMAT: (15F3.0)            



                           RECHARGE
 READING ON UNIT   16 WITH FORMAT: (15F5.0)            


     63 TIME-VARIANT SPECIFIED-HEAD CELLS
 
 SOLVING FOR HEAD 
                                                   Max.-Head-Change                        Max.-Flux-Residual
  Residual-Control   Outer-Iter.   Inner-Iter.     Column Row Layer    Max.-Head-Change    Column Row Layer    Max.-Flux-Residual            L2-New               L2-Old           Solver-Max-Delh
          0                 1          60            84   63     2      -0.3208996727E+03      84   63    2      -0.1078220100E+07      0.3009719872E+07      0.0000000000E+00     -0.3208996727E+03
          0                 2          60            81   45     1      -0.8075496117E+02      91   75    2      -0.5132867996E+06      0.9094543791E+06      0.3009719872E+07     -0.8075496117E+02
          0                 3          60            81   45     1       0.6558894030E+02      91   75    2      -0.1240896812E+06      0.3504883098E+06      0.9094543791E+06      0.6558894030E+02
          0                 4          60            81   45     1      -0.1246202097E+02      81   45    1      -0.6441598141E+05      0.7566166539E+05      0.3504883098E+06     -0.1246202097E+02
          0                 5          60            92   75     2       0.2792077994E+01      81   45    1      -0.1126567999E+05      0.1358473872E+05      0.7566166539E+05      0.2792077994E+01
          0                 6          60            92   75     2       0.6904098107E+00      81   45    1      -0.1968026627E+04      0.2219327099E+04      0.1358473872E+05      0.6904098107E+00
          0                 7          60            81   45     1      -0.6602579014E-01      81   45    1      -0.3363024359E+03      0.3535346740E+03      0.2219327099E+04     -0.6602579014E-01
          0                 8          33            81   45     1      -0.1127326582E-01      81   45    1      -0.5741162360E+02      0.5952408802E+02      0.3535346740E+03     -0.1127326582E-01
          0                 9          12            81   45     1      -0.1923489222E-02      81   45    1      -0.9794571584E+01      0.1011979766E+02      0.5952408802E+02     -0.1923489222E-02

    ------------------------------------------------
       NWT REQUIRED            9 OUTER ITERATIONS 
       AND A TOTAL OF        465 INNER ITERATIONS.
    ------------------------------------------------

 OUTPUT CONTROL FOR STRESS PERIOD    1   TIME STEP    1
    SAVE BUDGET
    SAVE HEAD FOR LAYERS:   1  2  3
 UBDSV2 SAVING "   CONSTANT HEAD" ON UNIT  39 AT TIME STEP  1, STRESS PERIOD   1
 UBDSV1 SAVING "FLOW RIGHT FACE " ON UNIT  39 AT TIME STEP  1, STRESS PERIOD   1
 UBDSV1 SAVING "FLOW FRONT FACE " ON UNIT  39 AT TIME STEP  1, STRESS PERIOD   1
 UBDSV1 SAVING "FLOW LOWER FACE " ON UNIT  39 AT TIME STEP  1, STRESS PERIOD   1
 UBDSV4 SAVING "           WELLS" ON UNIT  39 AT TIME STEP  1, STRESS PERIOD   1
 UBDSV3 SAVING "              ET" ON UNIT  39 AT TIME STEP  1, STRESS PERIOD   1
 UBDSV3 SAVING "        RECHARGE" ON UNIT  39 AT TIME STEP  1, STRESS PERIOD   1

 INTERPOLATION FOR HEAD OBS# 1758, ID 2574-1-107   CHANGED BECAUSE AT LEAST ONE
 NEIGHBORING CELL REQUIRED FOR INTERPOLATION IS DRY OR INACTIVE (OBS2BAS7SE)

 INTERPOLATION FOR HEAD OBS# 3654, ID 1891-1-365   CHANGED BECAUSE AT LEAST ONE
 NEIGHBORING CELL REQUIRED FOR INTERPOLATION IS DRY OR INACTIVE (OBS2BAS7SE)

 INTERPOLATION FOR HEAD OBS# 3781, ID 1282-1-277   CHANGED BECAUSE AT LEAST ONE
 NEIGHBORING CELL REQUIRED FOR INTERPOLATION IS DRY OR INACTIVE (OBS2BAS7SE)

 HEAD WILL BE SAVED ON UNIT   31 AT END OF TIME STEP    1, STRESS PERIOD    1
1
  VOLUMETRIC BUDGET FOR ENTIRE MODEL AT END OF TIME STEP    1, STRESS PERIOD   1
  ------------------------------------------------------------------------------

     CUMULATIVE VOLUMES      L**3       RATES FOR THIS TIME STEP      L**3/T
     ------------------                 ------------------------

           IN:                                      IN:
           ---                                      ---
             STORAGE     =           0.0000               STORAGE     =           0.0000
       CONSTANT HEAD     =   463009760.0000         CONSTANT HEAD     =     1265054.0000
               WELLS     =   448584960.0000                 WELLS     =     1225642.0000
                  ET     =           0.0000                    ET     =           0.0000
            RECHARGE     =  3744436224.0000              RECHARGE     =    10230700.0000

                TOTAL IN =  4656030720.0000                  TOTAL IN =    12721396.0000

          OUT:                                     OUT:
          ----                                     ----
             STORAGE     =           0.0000               STORAGE     =           0.0000
       CONSTANT HEAD     =  1125190016.0000         CONSTANT HEAD     =     3074289.7500
               WELLS     =  3069635328.0000                 WELLS     =     8386982.0000
                  ET     =   461210240.0000                    ET     =     1260137.2500
            RECHARGE     =           0.0000              RECHARGE     =           0.0000

               TOTAL OUT =  4656035328.0000                 TOTAL OUT =    12721409.0000

                IN - OUT =       -4608.0000                  IN - OUT =         -13.0000

     PERCENT DISCREPANCY =          -0.00         PERCENT DISCREPANCY =          -0.00






         TIME SUMMARY AT END OF TIME STEP    1 IN STRESS PERIOD    1
                    SECONDS     MINUTES      HOURS       DAYS        YEARS
                    -----------------------------------------------------------
   TIME STEP LENGTH 3.16224E+07 5.27040E+05  8784.0      366.00      1.0021    
 STRESS PERIOD TIME 3.16224E+07 5.27040E+05  8784.0      366.00      1.0021    
         TOTAL TIME 3.16224E+07 5.27040E+05  8784.0      366.00      1.0021    
1
 A TOTAL OF 109 HYDROGRAPH POINTS HAVE BEEN PREPARED.
1
                            STRESS PERIOD NO.    2, LENGTH =   365.0000    
                            -----------------------------------------------

                              NUMBER OF TIME STEPS =    12

                               MULTIPLIER FOR DELT =     1.000

                            INITIAL TIME STEP SIZE =   30.41667    

    540 WELLS

 REUSING SURF FROM LAST STRESS PERIOD

 REUSING EVTR FROM LAST STRESS PERIOD

 REUSING EXDP FROM LAST STRESS PERIOD



                           RECHARGE
 READING ON UNIT   16 WITH FORMAT: (15F5.0)            


     63 TIME-VARIANT SPECIFIED-HEAD CELLS
 
 SOLVING FOR HEAD 
                                                   Max.-Head-Change                        Max.-Flux-Residual
  Residual-Control   Outer-Iter.   Inner-Iter.     Column Row Layer    Max.-Head-Change    Column Row Layer    Max.-Flux-Residual            L2-New               L2-Old           Solver-Max-Delh
          0                 1          11            64   91     3      -0.3834643146E+02      65   90    1      -0.3406169970E+06      0.8521785755E+06      0.1011979766E+02     -0.3834643146E+02
          0                 2          10            77   46     1      -0.7325574950E+01      77   46    1      -0.2795203254E+06      0.2919408870E+06      0.8521785755E+06     -0.7325574950E+01
          0                 3           5            78   46     1       0.3920485739E-01      77   46    1      -0.3077148107E+03      0.5738126627E+03      0.2919408870E+06      0.3920485739E-01
          0                 4           3            78   46     1       0.3864190622E-02      67   47    1       0.2464103493E+02      0.3210977004E+02      0.5738126627E+03      0.3864190622E-02

    ------------------------------------------------
       NWT REQUIRED            4 OUTER ITERATIONS 
       AND A TOTAL OF         29 INNER ITERATIONS.
    ------------------------------------------------

 NO OUTPUT CONTROL FOR STRESS PERIOD    2   TIME STEP    1

 INTERPOLATION FOR HEAD OBS# 1009, ID 2643-2-60    CHANGED BECAUSE AT LEAST ONE
 NEIGHBORING CELL REQUIRED FOR INTERPOLATION IS DRY OR INACTIVE (OBS2BAS7SE)
 
 SOLVING FOR HEAD 
                                                   Max.-Head-Change                        Max.-Flux-Residual
  Residual-Control   Outer-Iter.   Inner-Iter.     Column Row Layer    Max.-Head-Change    Column Row Layer    Max.-Flux-Residual            L2-New               L2-Old           Solver-Max-Delh
          0                 1          11            64   91     3      -0.8231478650E+01      65   90    1      -0.1259078178E+06      0.5156518711E+06      0.3210977004E+02     -0.8231478650E+01
          0                 2           9            64   91     3       0.7458368777E+00      72   48    1      -0.1417734163E+05      0.5190817590E+05      0.5156518711E+06      0.7458368777E+00
          0                 3           4            92   51     3      -0.1520161843E-02      92   51    3      -0.1803322666E+02      0.2437693893E+02      0.5190817590E+05     -0.1520161843E-02

    ------------------------------------------------
       NWT REQUIRED            3 OUTER ITERATIONS 
       AND A TOTAL OF         24 INNER ITERATIONS.
    ------------------------------------------------

 NO OUTPUT CONTROL FOR STRESS PERIOD    2   TIME STEP    2
 
 SOLVING FOR HEAD 
                                                   Max.-Head-Change                        Max.-Flux-Residual
  Residual-Control   Outer-Iter.   Inner-Iter.     Column Row Layer    Max.-Head-Change    Column Row Layer    Max.-Flux-Residual            L2-New               L2-Old           Solver-Max-Delh
          0                 1          10            65   93     3      -0.3411312436E+01      72   48    1       0.9762271585E+05      0.4075475204E+06      0.2437693893E+02     -0.3411312436E+01
          0                 2           9            65   93     3       0.3100960553E+00      72   48    1      -0.9850062105E+04      0.4135060393E+05      0.4075475204E+06      0.3100960553E+00
          0                 3           4            66   46     1      -0.8643138439E-02      66   46    1      -0.5356782915E+03      0.5358995982E+03      0.4135060393E+05     -0.8643138439E-02

    ------------------------------------------------
       NWT REQUIRED            3 OUTER ITERATIONS 
       AND A TOTAL OF         23 INNER ITERATIONS.
    ------------------------------------------------

 NO OUTPUT CONTROL FOR STRESS PERIOD    2   TIME STEP    3

 INTERPOLATION FOR HEAD OBS# 6236, ID 1164-2-93    CHANGED BECAUSE AT LEAST ONE
 NEIGHBORING CELL REQUIRED FOR INTERPOLATION IS DRY OR INACTIVE (OBS2BAS7SE)
 
 SOLVING FOR HEAD 
                                                   Max.-Head-Change                        Max.-Flux-Residual
  Residual-Control   Outer-Iter.   Inner-Iter.     Column Row Layer    Max.-Head-Change    Column Row Layer    Max.-Flux-Residual            L2-New               L2-Old           Solver-Max-Delh
          0                 1          10            81   45     1       0.2329972703E+01      72   48    1       0.8205069301E+05      0.3503250071E+06      0.5358995982E+03      0.2329972703E+01
          0                 2           9            81   45     1      -0.2134459424E+00      66   46    1      -0.9603674290E+04      0.3659454606E+05      0.3503250071E+06     -0.2134459424E+00
          0                 3           4            70   46     1      -0.2755578876E-02      70   46    1      -0.8640049933E+02      0.8810599526E+02      0.3659454606E+05     -0.2755578876E-02

    ------------------------------------------------
       NWT REQUIRED            3 OUTER ITERATIONS 
       AND A TOTAL OF         23 INNER ITERATIONS.
    ------------------------------------------------

 NO OUTPUT CONTROL FOR STRESS PERIOD    2   TIME STEP    4
 
 SOLVING FOR HEAD 
                                                   Max.-Head-Change                        Max.-Flux-Residual
  Residual-Control   Outer-Iter.   Inner-Iter.     Column Row Layer    Max.-Head-Change    Column Row Layer    Max.-Flux-Residual            L2-New               L2-Old           Solver-Max-Delh
          0                 1          10            81   45     1       0.2039522681E+01      72   48    1       0.6933922787E+05      0.3109424217E+06      0.8810599526E+02      0.2039522681E+01
          0                 2           9            81   45     1      -0.1855580464E+00      72   48    1      -0.6977782894E+04      0.3113553890E+05      0.3109424217E+06     -0.1855580464E+00
          0                 3           4            80   45     1      -0.3484767877E-03      91   67    1      -0.9822257869E+00      0.2894524751E+01      0.3113553890E+05     -0.3484767877E-03

    ------------------------------------------------
       NWT REQUIRED            3 OUTER ITERATIONS 
       AND A TOTAL OF         23 INNER ITERATIONS.
    ------------------------------------------------

 NO OUTPUT CONTROL FOR STRESS PERIOD    2   TIME STEP    5
 
 SOLVING FOR HEAD 
                                                   Max.-Head-Change                        Max.-Flux-Residual
  Residual-Control   Outer-Iter.   Inner-Iter.     Column Row Layer    Max.-Head-Change    Column Row Layer    Max.-Flux-Residual            L2-New               L2-Old           Solver-Max-Delh
          0                 1          10            81   45     1       0.1787875560E+01      81   46    1       0.6047633883E+05      0.2813824650E+06      0.2894524751E+01      0.1787875560E+01
          0                 2           9            81   45     1      -0.1618938506E+00      72   48    1      -0.5924626489E+04      0.2790272762E+05      0.2813824650E+06     -0.1618938506E+00
          0                 3           4            80   45     1      -0.3736426962E-03      66   92    1       0.1293164603E+02      0.1851776703E+02      0.2790272762E+05     -0.3736426962E-03

    ------------------------------------------------
       NWT REQUIRED            3 OUTER ITERATIONS 
       AND A TOTAL OF         23 INNER ITERATIONS.
    ------------------------------------------------

 NO OUTPUT CONTROL FOR STRESS PERIOD    2   TIME STEP    6
 
 SOLVING FOR HEAD 
                                                   Max.-Head-Change                        Max.-Flux-Residual
  Residual-Control   Outer-Iter.   Inner-Iter.     Column Row Layer    Max.-Head-Change    Column Row Layer    Max.-Flux-Residual            L2-New               L2-Old           Solver-Max-Delh
          0                 1          10            81   46     1       0.1803296053E+01      81   46    1       0.5796407586E+05      0.2593519676E+06      0.1851776703E+02      0.1803296053E+01
          0                 2           9            81   46     1      -0.1640489238E+00      81   46    1      -0.5801381829E+04      0.2598712778E+05      0.2593519676E+06     -0.1640489238E+00
          0                 3           4            25   61     2      -0.5165709921E-02      25   61    2      -0.2765031893E+03      0.2765359543E+03      0.2598712778E+05     -0.5165709921E-02

    ------------------------------------------------
       NWT REQUIRED            3 OUTER ITERATIONS 
       AND A TOTAL OF         23 INNER ITERATIONS.
    ------------------------------------------------

 NO OUTPUT CONTROL FOR STRESS PERIOD    2   TIME STEP    7
 
 SOLVING FOR HEAD 
                                                   Max.-Head-Change                        Max.-Flux-Residual
  Residual-Control   Outer-Iter.   Inner-Iter.     Column Row Layer    Max.-Head-Change    Column Row Layer    Max.-Flux-Residual            L2-New               L2-Old           Solver-Max-Delh
          0                 1          10            81   46     1       0.1752465403E+01      81   46    1       0.5637241390E+05      0.2420862283E+06      0.2765359543E+03      0.1752465403E+01
          0                 2           9            25   61     2      -0.1836623835E+00      81   46    1      -0.5681652926E+04      0.2451608792E+05      0.2420862283E+06     -0.1836623835E+00
          0                 3           5            25   61     2       0.1644806043E-01      25   61    2       0.3712944410E+03      0.3791854623E+03      0.2451608792E+05      0.1644806043E-01
          0                 4           2            25   61     2       0.2182887564E-04      25   61    2       0.4573237300E+00      0.4927677495E+00      0.3791854623E+03      0.2182887564E-04

    ------------------------------------------------
       NWT REQUIRED            4 OUTER ITERATIONS 
       AND A TOTAL OF         26 INNER ITERATIONS.
    ------------------------------------------------

 NO OUTPUT CONTROL FOR STRESS PERIOD    2   TIME STEP    8
 
 SOLVING FOR HEAD 
                                                   Max.-Head-Change                        Max.-Flux-Residual
  Residual-Control   Outer-Iter.   Inner-Iter.     Column Row Layer    Max.-Head-Change    Column Row Layer    Max.-Flux-Residual            L2-New               L2-Old           Solver-Max-Delh
          0                 1          10            81   46     1       0.1699599796E+01      81   46    1       0.5475043780E+05      0.2281355991E+06      0.4927677495E+00      0.1699599796E+01
          0                 2           9            81   46     1      -0.1546470288E+00      81   46    1      -0.5481179088E+04      0.2291620744E+05      0.2281355991E+06     -0.1546470288E+00
          0                 3           3            71   46     1      -0.5310173755E-02      71   46    1      -0.2245181466E+02      0.2922063602E+02      0.2291620744E+05     -0.5310173755E-02

    ------------------------------------------------
       NWT REQUIRED            3 OUTER ITERATIONS 
       AND A TOTAL OF         22 INNER ITERATIONS.
    ------------------------------------------------

 NO OUTPUT CONTROL FOR STRESS PERIOD    2   TIME STEP    9
 
 SOLVING FOR HEAD 
                                                   Max.-Head-Change                        Max.-Flux-Residual
  Residual-Control   Outer-Iter.   Inner-Iter.     Column Row Layer    Max.-Head-Change    Column Row Layer    Max.-Flux-Residual            L2-New               L2-Old           Solver-Max-Delh
          0                 1          10            81   46     1       0.1648299940E+01      81   46    1       0.5313080075E+05      0.2165374230E+06      0.2922063602E+02      0.1648299940E+01
          0                 2           9            81   46     1      -0.1495773436E+00      81   46    1      -0.5318894996E+04      0.2153228192E+05      0.2165374230E+06     -0.1495773436E+00
          0                 3           3            80   45     1      -0.3935719571E-03      71   46    1      -0.9252277743E+00      0.3070836522E+01      0.2153228192E+05     -0.3935719571E-03

    ------------------------------------------------
       NWT REQUIRED            3 OUTER ITERATIONS 
       AND A TOTAL OF         22 INNER ITERATIONS.
    ------------------------------------------------

 NO OUTPUT CONTROL FOR STRESS PERIOD    2   TIME STEP   10
 
 SOLVING FOR HEAD 
                                                   Max.-Head-Change                        Max.-Flux-Residual
  Residual-Control   Outer-Iter.   Inner-Iter.     Column Row Layer    Max.-Head-Change    Column Row Layer    Max.-Flux-Residual            L2-New               L2-Old           Solver-Max-Delh
          0                 1          10            81   46     1       0.1599209489E+01      81   46    1       0.5154146720E+05      0.2069575743E+06      0.3070836522E+01      0.1599209489E+01
          0                 2           9            81   46     1      -0.1455054587E+00      81   46    1      -0.5159590771E+04      0.2069855031E+05      0.2069575743E+06     -0.1455054587E+00
          0                 3           3            80   45     1      -0.4556996064E-03      63  106    2       0.2494063932E+01      0.4703309865E+01      0.2069855031E+05     -0.4556996064E-03

    ------------------------------------------------
       NWT REQUIRED            3 OUTER ITERATIONS 
       AND A TOTAL OF         22 INNER ITERATIONS.
    ------------------------------------------------

 NO OUTPUT CONTROL FOR STRESS PERIOD    2   TIME STEP   11
 
 SOLVING FOR HEAD 
                                                   Max.-Head-Change                        Max.-Flux-Residual
  Residual-Control   Outer-Iter.   Inner-Iter.     Column Row Layer    Max.-Head-Change    Column Row Layer    Max.-Flux-Residual            L2-New               L2-Old           Solver-Max-Delh
          0                 1          10            81   46     1       0.1551030392E+01      81   46    1       0.4999374845E+05      0.1988497706E+06      0.4703309865E+01      0.1551030392E+01
          0                 2           9            81   46     1      -0.1411179305E+00      81   46    1      -0.5004488407E+04      0.1988654089E+05      0.1988497706E+06     -0.1411179305E+00
          0                 3           3            80   45     1      -0.4658301495E-03      71   46    1      -0.9075552896E+00      0.3135270824E+01      0.1988654089E+05     -0.4658301495E-03

    ------------------------------------------------
       NWT REQUIRED            3 OUTER ITERATIONS 
       AND A TOTAL OF         22 INNER ITERATIONS.
    ------------------------------------------------

 OUTPUT CONTROL FOR STRESS PERIOD    2   TIME STEP   12
    SAVE BUDGET
 UBDSV1 SAVING "         STORAGE" ON UNIT  39 AT TIME STEP 12, STRESS PERIOD   2
 UBDSV2 SAVING "   CONSTANT HEAD" ON UNIT  39 AT TIME STEP 12, STRESS PERIOD   2
 UBDSV1 SAVING "FLOW RIGHT FACE " ON UNIT  39 AT TIME STEP 12, STRESS PERIOD   2
 UBDSV1 SAVING "FLOW FRONT FACE " ON UNIT  39 AT TIME STEP 12, STRESS PERIOD   2
 UBDSV1 SAVING "FLOW LOWER FACE " ON UNIT  39 AT TIME STEP 12, STRESS PERIOD   2
 UBDSV4 SAVING "           WELLS" ON UNIT  39 AT TIME STEP 12, STRESS PERIOD   2
 UBDSV3 SAVING "              ET" ON UNIT  39 AT TIME STEP 12, STRESS PERIOD   2
 UBDSV3 SAVING "        RECHARGE" ON UNIT  39 AT TIME STEP 12, STRESS PERIOD   2
1
  VOLUMETRIC BUDGET FOR ENTIRE MODEL AT END OF TIME STEP   12, STRESS PERIOD   2
  ------------------------------------------------------------------------------

     CUMULATIVE VOLUMES      L**3       RATES FOR THIS TIME STEP      L**3/T
     ------------------                 ------------------------

           IN:                                      IN:
           ---                                      ---
             STORAGE     =  1316870784.0000               STORAGE     =     3335305.2500
       CONSTANT HEAD     =   900783936.0000         CONSTANT HEAD     =     1218228.1250
               WELLS     =   895944192.0000                 WELLS     =     1225642.0000
                  ET     =           0.0000                    ET     =           0.0000
            RECHARGE     =  8669944832.0000              RECHARGE     =    13494542.0000

                TOTAL IN = 11783543808.0000                  TOTAL IN =    19273718.0000

          OUT:                                     OUT:
          ----                                     ----
             STORAGE     =  1098498560.0000               STORAGE     =     2380908.7500
       CONSTANT HEAD     =  2279398400.0000         CONSTANT HEAD     =     3231065.5000
               WELLS     =  7256955392.0000                 WELLS     =    11472110.0000
                  ET     =  1148699136.0000                    ET     =     2189643.2500
            RECHARGE     =           0.0000              RECHARGE     =           0.0000

               TOTAL OUT = 11783550976.0000                 TOTAL OUT =    19273728.0000

                IN - OUT =       -7168.0000                  IN - OUT =         -10.0000

     PERCENT DISCREPANCY =          -0.00         PERCENT DISCREPANCY =          -0.00






         TIME SUMMARY AT END OF TIME STEP   12 IN STRESS PERIOD    2
                    SECONDS     MINUTES      HOURS       DAYS        YEARS
                    -----------------------------------------------------------
   TIME STEP LENGTH 2.62800E+06  43800.      730.00      30.417     8.32763E-02
 STRESS PERIOD TIME 3.15360E+07 5.25600E+05  8760.0      365.00     0.99932    
         TOTAL TIME 6.31584E+07 1.05264E+06  17544.      731.00      2.0014    
1
1
                            STRESS PERIOD NO.    3, LENGTH =   365.0000    
                            -----------------------------------------------

                              NUMBER OF TIME STEPS =    12

                               MULTIPLIER FOR DELT =     1.000

                            INITIAL TIME STEP SIZE =   30.41667    

    745 WELLS

 REUSING SURF FROM LAST STRESS PERIOD

 REUSING EVTR FROM LAST STRESS PERIOD

 REUSING EXDP FROM LAST STRESS PERIOD



                           RECHARGE
 READING ON UNIT   16 WITH FORMAT: (15F5.0)            


     63 TIME-VARIANT SPECIFIED-HEAD CELLS
 
 SOLVING FOR HEAD 
                                                   Max.-Head-Change                        Max.-Flux-Residual
  Residual-Control   Outer-Iter.   Inner-Iter.     Column Row Layer    Max.-Head-Change    Column Row Layer    Max.-Flux-Residual            L2-New               L2-Old           Solver-Max-Delh
          0                 1          11            92   77     2      -0.2479259108E+02      65   90    1       0.3317821691E+06      0.7442391756E+06      0.3135270824E+01     -0.2479259108E+02
          0                 2          10            92   77     2       0.7304730503E+01      65   90    1      -0.3283363212E+05      0.7335776048E+05      0.7442391756E+06      0.7304730503E+01
          0                 3           5            92   77     2       0.3803567659E+00      64   95    1      -0.2440708428E+03      0.4589925121E+03      0.7335776048E+05      0.3803567659E+00
          0                 4           4            92   77     2       0.1934928346E-01      64   95    1      -0.1940560676E+02      0.2302115116E+02      0.4589925121E+03      0.1934928346E-01
          0                 5           3            92   77     2       0.9851200435E-03      64   95    1      -0.1744572535E+01      0.1909317967E+01      0.2302115116E+02      0.9851200435E-03

    ------------------------------------------------
       NWT REQUIRED            5 OUTER ITERATIONS 
       AND A TOTAL OF         33 INNER ITERATIONS.
    ------------------------------------------------

 NO OUTPUT CONTROL FOR STRESS PERIOD    3   TIME STEP    1
 
 SOLVING FOR HEAD 
                                                   Max.-Head-Change                        Max.-Flux-Residual
  Residual-Control   Outer-Iter.   Inner-Iter.     Column Row Layer    Max.-Head-Change    Column Row Layer    Max.-Flux-Residual            L2-New               L2-Old           Solver-Max-Delh
          0                 1          11            64   91     3       0.3589300053E+01      65   90    1       0.1295815183E+06      0.4557804407E+06      0.1909317967E+01      0.3589300053E+01
          0                 2           9            81   45     1       0.3785709032E+00      65   90    1      -0.1354298483E+05      0.4718045807E+05      0.4557804407E+06      0.3785709032E+00
          0                 3           4            71   46     1       0.1938953256E-02      61   82    1      -0.7638436136E+02      0.1117641739E+03      0.4718045807E+05      0.1938953256E-02

    ------------------------------------------------
       NWT REQUIRED            3 OUTER ITERATIONS 
       AND A TOTAL OF         24 INNER ITERATIONS.
    ------------------------------------------------

 NO OUTPUT CONTROL FOR STRESS PERIOD    3   TIME STEP    2
 
 SOLVING FOR HEAD 
                                                   Max.-Head-Change                        Max.-Flux-Residual
  Residual-Control   Outer-Iter.   Inner-Iter.     Column Row Layer    Max.-Head-Change    Column Row Layer    Max.-Flux-Residual            L2-New               L2-Old           Solver-Max-Delh
          0                 1          11            81   45     1      -0.1907414020E+01      76   48    1      -0.6390647650E+05      0.3576256126E+06      0.1117641739E+03     -0.1907414020E+01
          0                 2           9            81   45     1       0.1731738591E+00      76   48    1       0.6374221587E+04      0.3570409718E+05      0.3576256126E+06      0.1731738591E+00
          0                 3           4            92   77     2       0.4284795023E-03      66   92    1       0.7365454227E+01      0.1121928700E+02      0.3570409718E+05      0.4284795023E-03

    ------------------------------------------------
       NWT REQUIRED            3 OUTER ITERATIONS 
       AND A TOTAL OF         24 INNER ITERATIONS.
    ------------------------------------------------

 NO OUTPUT CONTROL FOR STRESS PERIOD    3   TIME STEP    3
 
 SOLVING FOR HEAD 
                                                   Max.-Head-Change                        Max.-Flux-Residual
  Residual-Control   Outer-Iter.   Inner-Iter.     Column Row Layer    Max.-Head-Change    Column Row Layer    Max.-Flux-Residual            L2-New               L2-Old           Solver-Max-Delh
          0                 1          10            81   45     1      -0.1660862152E+01      81   45    1      -0.5168592264E+05      0.3078968740E+06      0.1121928700E+02     -0.1660862152E+01
          0                 2           9            81   45     1       0.1508658720E+00      81   45    1       0.5163286817E+04      0.3072817617E+05      0.3078968740E+06      0.1508658720E+00
          0                 3           4            70   46     1      -0.2436332829E-02      70   46    1      -0.7332886419E+02      0.7373874153E+02      0.3072817617E+05     -0.2436332829E-02

    ------------------------------------------------
       NWT REQUIRED            3 OUTER ITERATIONS 
       AND A TOTAL OF         23 INNER ITERATIONS.
    ------------------------------------------------

 NO OUTPUT CONTROL FOR STRESS PERIOD    3   TIME STEP    4
 
 SOLVING FOR HEAD 
                                                   Max.-Head-Change                        Max.-Flux-Residual
  Residual-Control   Outer-Iter.   Inner-Iter.     Column Row Layer    Max.-Head-Change    Column Row Layer    Max.-Flux-Residual            L2-New               L2-Old           Solver-Max-Delh
          0                 1          10            81   45     1      -0.1447604243E+01      81   45    1      -0.4500220656E+05      0.2761217398E+06      0.7373874153E+02     -0.1447604243E+01
          0                 2           9            81   45     1       0.1315107451E+00      81   45    1       0.4496352629E+04      0.2758377540E+05      0.2761217398E+06      0.1315107451E+00
          0                 3           4            59   83     1       0.6528014797E-03      92   51    2      -0.1059940857E+02      0.2057570806E+02      0.2758377540E+05      0.6528014797E-03

    ------------------------------------------------
       NWT REQUIRED            3 OUTER ITERATIONS 
       AND A TOTAL OF         23 INNER ITERATIONS.
    ------------------------------------------------

 NO OUTPUT CONTROL FOR STRESS PERIOD    3   TIME STEP    5
 
 SOLVING FOR HEAD 
                                                   Max.-Head-Change                        Max.-Flux-Residual
  Residual-Control   Outer-Iter.   Inner-Iter.     Column Row Layer    Max.-Head-Change    Column Row Layer    Max.-Flux-Residual            L2-New               L2-Old           Solver-Max-Delh
          0                 1          10            81   46     1      -0.1317583549E+01      81   46    1      -0.4250586332E+05      0.2538223482E+06      0.2057570806E+02     -0.1317583549E+01
          0                 2           9            81   46     1       0.1197159676E+00      81   46    1       0.4247791610E+04      0.2548917047E+05      0.2538223482E+06      0.1197159676E+00
          0                 3           6            15   35     2      -0.5732142461E-02      15   35    2      -0.2912104936E+03      0.2912365883E+03      0.2548917047E+05     -0.5732142461E-02

    ------------------------------------------------
       NWT REQUIRED            3 OUTER ITERATIONS 
       AND A TOTAL OF         25 INNER ITERATIONS.
    ------------------------------------------------

 NO OUTPUT CONTROL FOR STRESS PERIOD    3   TIME STEP    6
 
 SOLVING FOR HEAD 
                                                   Max.-Head-Change                        Max.-Flux-Residual
  Residual-Control   Outer-Iter.   Inner-Iter.     Column Row Layer    Max.-Head-Change    Column Row Layer    Max.-Flux-Residual            L2-New               L2-Old           Solver-Max-Delh
          0                 1          10            81   46     1      -0.1276211461E+01      81   46    1      -0.4119369808E+05      0.2373785935E+06      0.2912365883E+03     -0.1276211461E+01
          0                 2           9            81   46     1       0.1159551802E+00      81   46    1       0.4116646612E+04      0.2377543573E+05      0.2373785935E+06      0.1159551802E+00
          0                 3           5            15   35     2       0.6295255940E-02      15   35    2       0.1273566595E+03      0.1305373403E+03      0.2377543573E+05      0.6295255940E-02

    ------------------------------------------------
       NWT REQUIRED            3 OUTER ITERATIONS 
       AND A TOTAL OF         24 INNER ITERATIONS.
    ------------------------------------------------

 NO OUTPUT CONTROL FOR STRESS PERIOD    3   TIME STEP    7

 INTERPOLATION FOR HEAD OBS# 1866, ID 2629-3-217   CHANGED BECAUSE AT LEAST ONE
 NEIGHBORING CELL REQUIRED FOR INTERPOLATION IS DRY OR INACTIVE (OBS2BAS7SE)
 
 SOLVING FOR HEAD 
                                                   Max.-Head-Change                        Max.-Flux-Residual
  Residual-Control   Outer-Iter.   Inner-Iter.     Column Row Layer    Max.-Head-Change    Column Row Layer    Max.-Flux-Residual            L2-New               L2-Old           Solver-Max-Delh
          0                 1          10            81   46     1      -0.1235612905E+01      81   46    1      -0.3989996325E+05      0.2248162662E+06      0.1305373403E+03     -0.1235612905E+01
          0                 2           9            81   46     1       0.1122688738E+00      81   46    1       0.3987375291E+04      0.2247198504E+05      0.2248162662E+06      0.1122688738E+00
          0                 3           4            67   45     2       0.3700279066E-03      87   51    1      -0.5181288525E+01      0.9315319276E+01      0.2247198504E+05      0.3700279066E-03

    ------------------------------------------------
       NWT REQUIRED            3 OUTER ITERATIONS 
       AND A TOTAL OF         23 INNER ITERATIONS.
    ------------------------------------------------

 NO OUTPUT CONTROL FOR STRESS PERIOD    3   TIME STEP    8
 
 SOLVING FOR HEAD 
                                                   Max.-Head-Change                        Max.-Flux-Residual
  Residual-Control   Outer-Iter.   Inner-Iter.     Column Row Layer    Max.-Head-Change    Column Row Layer    Max.-Flux-Residual            L2-New               L2-Old           Solver-Max-Delh
          0                 1          10            81   46     1      -0.1195804425E+01      81   46    1      -0.3863030220E+05      0.2149306159E+06      0.9315319276E+01     -0.1195804425E+01
          0                 2           9            81   46     1       0.1583727311E+00      81   46    1       0.6136343626E+04      0.2200516879E+05      0.2149306159E+06      0.1583727311E+00
          0                 3           4            56  107     1      -0.1984114311E-02      56  107    1      -0.1062258262E+03      0.1063056460E+03      0.2200516879E+05     -0.1984114311E-02

    ------------------------------------------------
       NWT REQUIRED            3 OUTER ITERATIONS 
       AND A TOTAL OF         23 INNER ITERATIONS.
    ------------------------------------------------

 NO OUTPUT CONTROL FOR STRESS PERIOD    3   TIME STEP    9
 
 SOLVING FOR HEAD 
                                                   Max.-Head-Change                        Max.-Flux-Residual
  Residual-Control   Outer-Iter.   Inner-Iter.     Column Row Layer    Max.-Head-Change    Column Row Layer    Max.-Flux-Residual            L2-New               L2-Old           Solver-Max-Delh
          0                 1          10            81   46     1      -0.1015400868E+01      81   46    1      -0.3567567070E+05      0.2066970141E+06      0.1063056460E+03     -0.1015400868E+01
          0                 2           9            56  107     1      -0.1550179117E+00      81   46    1       0.3565796628E+04      0.2085624660E+05      0.2066970141E+06     -0.1550179117E+00
          0                 3           4            56  107     1       0.1384361744E-01      56  107    1       0.2785563792E+03      0.2824248144E+03      0.2085624660E+05      0.1384361744E-01
          0                 4           2            56  107     1       0.2204519079E-04      56  107    1       0.4149880409E+00      0.4188960805E+00      0.2824248144E+03      0.2204519079E-04

    ------------------------------------------------
       NWT REQUIRED            4 OUTER ITERATIONS 
       AND A TOTAL OF         25 INNER ITERATIONS.
    ------------------------------------------------

 NO OUTPUT CONTROL FOR STRESS PERIOD    3   TIME STEP   10
 
 SOLVING FOR HEAD 
                                                   Max.-Head-Change                        Max.-Flux-Residual
  Residual-Control   Outer-Iter.   Inner-Iter.     Column Row Layer    Max.-Head-Change    Column Row Layer    Max.-Flux-Residual            L2-New               L2-Old           Solver-Max-Delh
          0                 1          10            81   46     1      -0.9036807694E+00      81   46    1      -0.3174474622E+05      0.1997760442E+06      0.4188960805E+00     -0.9036807694E+00
          0                 2           9            81   46     1       0.8212363427E-01      81   46    1       0.3173080586E+04      0.1997787415E+05      0.1997760442E+06      0.8212363427E-01
          0                 3           4            92   77     2       0.2537509983E-03      42   36    1       0.1120739132E+01      0.4224761943E+01      0.1997787415E+05      0.2537509983E-03

    ------------------------------------------------
       NWT REQUIRED            3 OUTER ITERATIONS 
       AND A TOTAL OF         23 INNER ITERATIONS.
    ------------------------------------------------

 NO OUTPUT CONTROL FOR STRESS PERIOD    3   TIME STEP   11
 
 SOLVING FOR HEAD 
                                                   Max.-Head-Change                        Max.-Flux-Residual
  Residual-Control   Outer-Iter.   Inner-Iter.     Column Row Layer    Max.-Head-Change    Column Row Layer    Max.-Flux-Residual            L2-New               L2-Old           Solver-Max-Delh
          0                 1          10            81   46     1      -0.8043843965E+00      81   46    1      -0.2825172502E+05      0.1939984022E+06      0.4224761943E+01     -0.8043843965E+00
          0                 2           9            81   46     1       0.7310287164E-01      81   46    1       0.2824074673E+04      0.1960773170E+05      0.1939984022E+06      0.7310287164E-01
          0                 3           6            14   17     1      -0.4155082746E-02      14   17    1      -0.2979815269E+03      0.2999610800E+03      0.1960773170E+05     -0.4155082746E-02

    ------------------------------------------------
       NWT REQUIRED            3 OUTER ITERATIONS 
       AND A TOTAL OF         25 INNER ITERATIONS.
    ------------------------------------------------

 OUTPUT CONTROL FOR STRESS PERIOD    3   TIME STEP   12
    SAVE BUDGET
 UBDSV1 SAVING "         STORAGE" ON UNIT  39 AT TIME STEP 12, STRESS PERIOD   3
 UBDSV2 SAVING "   CONSTANT HEAD" ON UNIT  39 AT TIME STEP 12, STRESS PERIOD   3
 UBDSV1 SAVING "FLOW RIGHT FACE " ON UNIT  39 AT TIME STEP 12, STRESS PERIOD   3
 UBDSV1 SAVING "FLOW FRONT FACE " ON UNIT  39 AT TIME STEP 12, STRESS PERIOD   3
 UBDSV1 SAVING "FLOW LOWER FACE " ON UNIT  39 AT TIME STEP 12, STRESS PERIOD   3
 UBDSV4 SAVING "           WELLS" ON UNIT  39 AT TIME STEP 12, STRESS PERIOD   3
 UBDSV3 SAVING "              ET" ON UNIT  39 AT TIME STEP 12, STRESS PERIOD   3
 UBDSV3 SAVING "        RECHARGE" ON UNIT  39 AT TIME STEP 12, STRESS PERIOD   3
1
  VOLUMETRIC BUDGET FOR ENTIRE MODEL AT END OF TIME STEP   12, STRESS PERIOD   3
  ------------------------------------------------------------------------------

     CUMULATIVE VOLUMES      L**3       RATES FOR THIS TIME STEP      L**3/T
     ------------------                 ------------------------

           IN:                                      IN:
           ---                                      ---
             STORAGE     =  3970800384.0000               STORAGE     =     6564563.5000
       CONSTANT HEAD     =  1328733056.0000         CONSTANT HEAD     =     1149347.3750
               WELLS     =  1343303936.0000                 WELLS     =     1225642.0000
                  ET     =           0.0000                    ET     =           0.0000
            RECHARGE     = 11984239616.0000              RECHARGE     =     9080258.0000

                TOTAL IN = 18627076096.0000                  TOTAL IN =    18019812.0000

          OUT:                                     OUT:
          ----                                     ----
             STORAGE     =  1416518528.0000               STORAGE     =      414319.6562
       CONSTANT HEAD     =  3446912768.0000         CONSTANT HEAD     =     3194357.2500
               WELLS     = 12030633984.0000                 WELLS     =    13078566.0000
                  ET     =  1733026048.0000                    ET     =     1332601.5000
            RECHARGE     =           0.0000              RECHARGE     =           0.0000

               TOTAL OUT = 18627090432.0000                 TOTAL OUT =    18019844.0000

                IN - OUT =      -14336.0000                  IN - OUT =         -32.0000

     PERCENT DISCREPANCY =          -0.00         PERCENT DISCREPANCY =          -0.00






         TIME SUMMARY AT END OF TIME STEP   12 IN STRESS PERIOD    3
                    SECONDS     MINUTES      HOURS       DAYS        YEARS
                    -----------------------------------------------------------
   TIME STEP LENGTH 2.62800E+06  43800.      730.00      30.417     8.32763E-02
 STRESS PERIOD TIME 3.15360E+07 5.25600E+05  8760.0      365.00     0.99932    
         TOTAL TIME 9.46944E+07 1.57824E+06  26304.      1096.0      3.0007    
1
1
                            STRESS PERIOD NO.    4, LENGTH =   365.0000    
                            -----------------------------------------------

                              NUMBER OF TIME STEPS =    12

                               MULTIPLIER FOR DELT =     1.000

                            INITIAL TIME STEP SIZE =   30.41667    

    755 WELLS

 REUSING SURF FROM LAST STRESS PERIOD

 REUSING EVTR FROM LAST STRESS PERIOD

 REUSING EXDP FROM LAST STRESS PERIOD



                           RECHARGE
 READING ON UNIT   16 WITH FORMAT: (15F5.0)            


     63 TIME-VARIANT SPECIFIED-HEAD CELLS
 
 SOLVING FOR HEAD 
                                                   Max.-Head-Change                        Max.-Flux-Residual
  Residual-Control   Outer-Iter.   Inner-Iter.     Column Row Layer    Max.-Head-Change    Column Row Layer    Max.-Flux-Residual            L2-New               L2-Old           Solver-Max-Delh
          0                 1          11            90   52     3      -0.6902387075E+01      29   18    2      -0.1277808362E+06      0.4585880732E+06      0.2999610800E+03     -0.6902387075E+01
          0                 2          10            90   52     3       0.3921828722E+00      29   18    2       0.1277808382E+05      0.4564696061E+05      0.4585880732E+06      0.3921828722E+00
          0                 3           5            91   52     3       0.1083710491E-01      14   17    1       0.1923658937E+03      0.2390759292E+03      0.4564696061E+05      0.1083710491E-01
          0                 4           2            92   77     2       0.5639268381E-03      85   51    1      -0.1498836733E+01      0.1616757258E+01      0.2390759292E+03      0.5639268381E-03

    ------------------------------------------------
       NWT REQUIRED            4 OUTER ITERATIONS 
       AND A TOTAL OF         28 INNER ITERATIONS.
    ------------------------------------------------

 NO OUTPUT CONTROL FOR STRESS PERIOD    4   TIME STEP    1
 
 SOLVING FOR HEAD 
                                                   Max.-Head-Change                        Max.-Flux-Residual
  Residual-Control   Outer-Iter.   Inner-Iter.     Column Row Layer    Max.-Head-Change    Column Row Layer    Max.-Flux-Residual            L2-New               L2-Old           Solver-Max-Delh
          0                 1          11            31   20     1      -0.1191862390E+01      31   20    1      -0.5320309509E+05      0.2520030796E+06      0.1616757258E+01     -0.1191862390E+01
          0                 2           9            31   20     1       0.1071686946E+00      31   20    1       0.5228282028E+04      0.2515790221E+05      0.2520030796E+06      0.1071686946E+00
          0                 3           4            68   47     2      -0.4973121584E-03      59   60    1      -0.1205015099E+02      0.2203982012E+02      0.2515790221E+05     -0.4973121584E-03

    ------------------------------------------------
       NWT REQUIRED            3 OUTER ITERATIONS 
       AND A TOTAL OF         24 INNER ITERATIONS.
    ------------------------------------------------

 NO OUTPUT CONTROL FOR STRESS PERIOD    4   TIME STEP    2
 
 SOLVING FOR HEAD 
                                                   Max.-Head-Change                        Max.-Flux-Residual
  Residual-Control   Outer-Iter.   Inner-Iter.     Column Row Layer    Max.-Head-Change    Column Row Layer    Max.-Flux-Residual            L2-New               L2-Old           Solver-Max-Delh
          0                 1          10            31   20     1      -0.7882756706E+00      31   20    1      -0.3232608636E+05      0.1955582329E+06      0.2203982012E+02     -0.7882756706E+00
          0                 2           9            31   20     1       0.7176646534E-01      31   20    1       0.3242741968E+04      0.1954556943E+05      0.1955582329E+06      0.7176646534E-01
          0                 3           4            28   15     1       0.2105823771E-02      28   15    1       0.4937554911E+02      0.5608272488E+02      0.1954556943E+05      0.2105823771E-02

    ------------------------------------------------
       NWT REQUIRED            3 OUTER ITERATIONS 
       AND A TOTAL OF         23 INNER ITERATIONS.
    ------------------------------------------------

 NO OUTPUT CONTROL FOR STRESS PERIOD    4   TIME STEP    3
 
 SOLVING FOR HEAD 
                                                   Max.-Head-Change                        Max.-Flux-Residual
  Residual-Control   Outer-Iter.   Inner-Iter.     Column Row Layer    Max.-Head-Change    Column Row Layer    Max.-Flux-Residual            L2-New               L2-Old           Solver-Max-Delh
          0                 1          10            70   47     1      -0.6288729140E+00      70   47    1      -0.2504810412E+05      0.1694118584E+06      0.5608272488E+02     -0.6288729140E+00
          0                 2           9            70   47     1       0.5710881089E-01      70   47    1       0.2501456214E+04      0.1693324276E+05      0.1694118584E+06      0.5710881089E-01
          0                 3           4            92   77     2       0.4283892396E-03      30   20    1      -0.2214266300E+01      0.5175478602E+01      0.1693324276E+05      0.4283892396E-03

    ------------------------------------------------
       NWT REQUIRED            3 OUTER ITERATIONS 
       AND A TOTAL OF         23 INNER ITERATIONS.
    ------------------------------------------------

 NO OUTPUT CONTROL FOR STRESS PERIOD    4   TIME STEP    4
 
 SOLVING FOR HEAD 
                                                   Max.-Head-Change                        Max.-Flux-Residual
  Residual-Control   Outer-Iter.   Inner-Iter.     Column Row Layer    Max.-Head-Change    Column Row Layer    Max.-Flux-Residual            L2-New               L2-Old           Solver-Max-Delh
          0                 1          10            71   47     1      -0.5639654374E+00      70   47    1      -0.2229499578E+05      0.1543258396E+06      0.5175478602E+01     -0.5639654374E+00
          0                 2           9            71   47     1       0.5121804614E-01      70   47    1       0.2227058595E+04      0.1542916202E+05      0.1543258396E+06      0.5121804614E-01
          0                 3           4            92   77     2       0.4084561626E-03      84   51    1       0.4221523955E+01      0.6544426668E+01      0.1542916202E+05      0.4084561626E-03

    ------------------------------------------------
       NWT REQUIRED            3 OUTER ITERATIONS 
       AND A TOTAL OF         23 INNER ITERATIONS.
    ------------------------------------------------

 NO OUTPUT CONTROL FOR STRESS PERIOD    4   TIME STEP    5
 
 SOLVING FOR HEAD 
                                                   Max.-Head-Change                        Max.-Flux-Residual
  Residual-Control   Outer-Iter.   Inner-Iter.     Column Row Layer    Max.-Head-Change    Column Row Layer    Max.-Flux-Residual            L2-New               L2-Old           Solver-Max-Delh
          0                 1          10            71   47     1      -0.5214231118E+00      71   47    1      -0.1999092332E+05      0.1443063953E+06      0.6544426668E+01     -0.5214231118E+00
          0                 2           9            71   47     1       0.4742165873E-01      71   47    1       0.1996607742E+04      0.1443081064E+05      0.1443063953E+06      0.4742165873E-01
          0                 3           4            92   77     2       0.3909441178E-03      43   38    1       0.6221881509E+00      0.3917655564E+01      0.1443081064E+05      0.3909441178E-03

    ------------------------------------------------
       NWT REQUIRED            3 OUTER ITERATIONS 
       AND A TOTAL OF         23 INNER ITERATIONS.
    ------------------------------------------------

 NO OUTPUT CONTROL FOR STRESS PERIOD    4   TIME STEP    6
 
 SOLVING FOR HEAD 
                                                   Max.-Head-Change                        Max.-Flux-Residual
  Residual-Control   Outer-Iter.   Inner-Iter.     Column Row Layer    Max.-Head-Change    Column Row Layer    Max.-Flux-Residual            L2-New               L2-Old           Solver-Max-Delh
          0                 1          10            71   47     1      -0.4827135895E+00      71   47    1      -0.1848023893E+05      0.1370824053E+06      0.3917655564E+01     -0.4827135895E+00
          0                 2           9            71   47     1       0.4384353586E-01      71   47    1       0.1845846358E+04      0.1371514872E+05      0.1370824053E+06      0.4384353586E-01
          0                 3           4            59   39     1       0.2740749586E-02      59   39    1       0.2104709048E+02      0.2874365242E+02      0.1371514872E+05      0.2740749586E-02

    ------------------------------------------------
       NWT REQUIRED            3 OUTER ITERATIONS 
       AND A TOTAL OF         23 INNER ITERATIONS.
    ------------------------------------------------

 NO OUTPUT CONTROL FOR STRESS PERIOD    4   TIME STEP    7
 
 SOLVING FOR HEAD 
                                                   Max.-Head-Change                        Max.-Flux-Residual
  Residual-Control   Outer-Iter.   Inner-Iter.     Column Row Layer    Max.-Head-Change    Column Row Layer    Max.-Flux-Residual            L2-New               L2-Old           Solver-Max-Delh
          0                 1          10            71   47     1      -0.4477018843E+00      71   47    1      -0.1711050745E+05      0.1315942678E+06      0.2874365242E+02     -0.4477018843E+00
          0                 2           9            71   47     1       0.4066511045E-01      71   47    1       0.1709149246E+04      0.1315617373E+05      0.1315942678E+06      0.4066511045E-01
          0                 3           4            92   77     2       0.3612559327E-03      43   38    1       0.5747477114E+00      0.3774772949E+01      0.1315617373E+05      0.3612559327E-03

    ------------------------------------------------
       NWT REQUIRED            3 OUTER ITERATIONS 
       AND A TOTAL OF         23 INNER ITERATIONS.
    ------------------------------------------------

 NO OUTPUT CONTROL FOR STRESS PERIOD    4   TIME STEP    8
 
 SOLVING FOR HEAD 
                                                   Max.-Head-Change                        Max.-Flux-Residual
  Residual-Control   Outer-Iter.   Inner-Iter.     Column Row Layer    Max.-Head-Change    Column Row Layer    Max.-Flux-Residual            L2-New               L2-Old           Solver-Max-Delh
          0                 1          10            71   47     1      -0.4159379793E+00      71   47    1      -0.1586935906E+05      0.1272848964E+06      0.3774772949E+01     -0.4159379793E+00
          0                 2           9            71   47     1       0.3778090735E-01      71   47    1       0.1585279220E+04      0.1276302316E+05      0.1272848964E+06      0.3778090735E-01
          0                 3           4            92   77     2       0.3484102942E-03      66   95    1      -0.1544116765E+01      0.4287941011E+01      0.1276302316E+05      0.3484102942E-03

    ------------------------------------------------
       NWT REQUIRED            3 OUTER ITERATIONS 
       AND A TOTAL OF         23 INNER ITERATIONS.
    ------------------------------------------------

 NO OUTPUT CONTROL FOR STRESS PERIOD    4   TIME STEP    9
 
 SOLVING FOR HEAD 
                                                   Max.-Head-Change                        Max.-Flux-Residual
  Residual-Control   Outer-Iter.   Inner-Iter.     Column Row Layer    Max.-Head-Change    Column Row Layer    Max.-Flux-Residual            L2-New               L2-Old           Solver-Max-Delh
          0                 1          10            71   47     1      -0.3870847366E+00      71   47    1      -0.1474337925E+05      0.1238249460E+06      0.4287941011E+01     -0.3870847366E+00
          0                 2           9            71   47     1       0.3516262584E-01      71   47    1       0.1472896670E+04      0.1238123308E+05      0.1238249460E+06      0.3516262584E-01
          0                 3           4            67    9     2       0.3905043850E-03      43   38    1       0.5257359445E+00      0.3621092221E+01      0.1238123308E+05      0.3905043850E-03

    ------------------------------------------------
       NWT REQUIRED            3 OUTER ITERATIONS 
       AND A TOTAL OF         23 INNER ITERATIONS.
    ------------------------------------------------

 NO OUTPUT CONTROL FOR STRESS PERIOD    4   TIME STEP   10
 
 SOLVING FOR HEAD 
                                                   Max.-Head-Change                        Max.-Flux-Residual
  Residual-Control   Outer-Iter.   Inner-Iter.     Column Row Layer    Max.-Head-Change    Column Row Layer    Max.-Flux-Residual            L2-New               L2-Old           Solver-Max-Delh
          0                 1          10            71   47     1      -0.3608403228E+00      71   47    1      -0.1372051126E+05      0.1209821584E+06      0.3621092221E+01     -0.3608403228E+00
          0                 2           9            56   34     1      -0.3305114923E+00      71   47    1       0.1370798262E+04      0.1213514740E+05      0.1209821584E+06     -0.3305114923E+00
          0                 3           4            56   34     1       0.2646748037E-01      56   34    1       0.8609180499E+02      0.9219195825E+02      0.1213514740E+05      0.2646748037E-01
          0                 4           2            56   34     1       0.2866403850E-03      56   34    1       0.9153388198E+00      0.9382180694E+00      0.9219195825E+02      0.2866403850E-03

    ------------------------------------------------
       NWT REQUIRED            4 OUTER ITERATIONS 
       AND A TOTAL OF         25 INNER ITERATIONS.
    ------------------------------------------------

 NO OUTPUT CONTROL FOR STRESS PERIOD    4   TIME STEP   11
 
 SOLVING FOR HEAD 
                                                   Max.-Head-Change                        Max.-Flux-Residual
  Residual-Control   Outer-Iter.   Inner-Iter.     Column Row Layer    Max.-Head-Change    Column Row Layer    Max.-Flux-Residual            L2-New               L2-Old           Solver-Max-Delh
          0                 1          10            71   47     1      -0.3369390482E+00      71   47    1      -0.1279017907E+05      0.1185993113E+06      0.9382180694E+00     -0.3369390482E+00
          0                 2           9            71   47     1       0.3061018377E-01      71   47    1       0.1277929118E+04      0.1185872957E+05      0.1185993113E+06      0.3061018377E-01
          0                 3           4            92   77     2       0.3154369060E-03      23   54    2       0.1004607163E+02      0.1381834075E+02      0.1185872957E+05      0.3154369060E-03

    ------------------------------------------------
       NWT REQUIRED            3 OUTER ITERATIONS 
       AND A TOTAL OF         23 INNER ITERATIONS.
    ------------------------------------------------

 OUTPUT CONTROL FOR STRESS PERIOD    4   TIME STEP   12
    SAVE BUDGET
 UBDSV1 SAVING "         STORAGE" ON UNIT  39 AT TIME STEP 12, STRESS PERIOD   4
 UBDSV2 SAVING "   CONSTANT HEAD" ON UNIT  39 AT TIME STEP 12, STRESS PERIOD   4
 UBDSV1 SAVING "FLOW RIGHT FACE " ON UNIT  39 AT TIME STEP 12, STRESS PERIOD   4
 UBDSV1 SAVING "FLOW FRONT FACE " ON UNIT  39 AT TIME STEP 12, STRESS PERIOD   4
 UBDSV1 SAVING "FLOW LOWER FACE " ON UNIT  39 AT TIME STEP 12, STRESS PERIOD   4
 UBDSV4 SAVING "           WELLS" ON UNIT  39 AT TIME STEP 12, STRESS PERIOD   4
 UBDSV3 SAVING "              ET" ON UNIT  39 AT TIME STEP 12, STRESS PERIOD   4
 UBDSV3 SAVING "        RECHARGE" ON UNIT  39 AT TIME STEP 12, STRESS PERIOD   4
1
  VOLUMETRIC BUDGET FOR ENTIRE MODEL AT END OF TIME STEP   12, STRESS PERIOD   4
  ------------------------------------------------------------------------------

     CUMULATIVE VOLUMES      L**3       RATES FOR THIS TIME STEP      L**3/T
     ------------------                 ------------------------

           IN:                                      IN:
           ---                                      ---
             STORAGE     =  5888076288.0000               STORAGE     =     4907985.0000
       CONSTANT HEAD     =  1748471040.0000         CONSTANT HEAD     =     1148917.5000
               WELLS     =  1790663936.0000                 WELLS     =     1225642.0000
                  ET     =           0.0000                    ET     =           0.0000
            RECHARGE     = 16069704704.0000              RECHARGE     =    11193061.0000

                TOTAL IN = 25496915968.0000                  TOTAL IN =    18475606.0000

          OUT:                                     OUT:
          ----                                     ----
             STORAGE     =  1590111616.0000               STORAGE     =      154246.0469
       CONSTANT HEAD     =  4630594560.0000         CONSTANT HEAD     =     3270812.0000
               WELLS     = 17083975680.0000                 WELLS     =    13844774.0000
                  ET     =  2192252672.0000                    ET     =     1205782.2500
            RECHARGE     =           0.0000              RECHARGE     =           0.0000

               TOTAL OUT = 25496934400.0000                 TOTAL OUT =    18475614.0000

                IN - OUT =      -18432.0000                  IN - OUT =          -8.0000

     PERCENT DISCREPANCY =          -0.00         PERCENT DISCREPANCY =          -0.00






         TIME SUMMARY AT END OF TIME STEP   12 IN STRESS PERIOD    4
                    SECONDS     MINUTES      HOURS       DAYS        YEARS
                    -----------------------------------------------------------
   TIME STEP LENGTH 2.62800E+06  43800.      730.00      30.417     8.32763E-02
 STRESS PERIOD TIME 3.15360E+07 5.25600E+05  8760.0      365.00     0.99932    
         TOTAL TIME 1.26230E+08 2.10384E+06  35064.      1461.0      4.0000    
1
1
                            STRESS PERIOD NO.    5, LENGTH =   366.0000    
                            -----------------------------------------------

                              NUMBER OF TIME STEPS =    12

                               MULTIPLIER FOR DELT =     1.000

                            INITIAL TIME STEP SIZE =   30.50000    

    767 WELLS

 REUSING SURF FROM LAST STRESS PERIOD

 REUSING EVTR FROM LAST STRESS PERIOD

 REUSING EXDP FROM LAST STRESS PERIOD



                           RECHARGE
 READING ON UNIT   16 WITH FORMAT: (15F5.0)            


     63 TIME-VARIANT SPECIFIED-HEAD CELLS
 
 SOLVING FOR HEAD 
                                                   Max.-Head-Change                        Max.-Flux-Residual
  Residual-Control   Outer-Iter.   Inner-Iter.     Column Row Layer    Max.-Head-Change    Column Row Layer    Max.-Flux-Residual            L2-New               L2-Old           Solver-Max-Delh
          0                 1          10            92   77     2       0.1637532479E+02      81   45    1       0.9740295417E+05      0.3764511402E+06      0.1381834075E+02      0.1637532479E+02
          0                 2           9            92   77     2      -0.6185417797E+00      81   45    1      -0.9820791238E+04      0.3876200163E+05      0.3764511402E+06     -0.6185417797E+00
          0                 3           5            92   77     2      -0.3393697942E-01      63   81    1      -0.1391144786E+03      0.1984513114E+03      0.3876200163E+05     -0.3393697942E-01
          0                 4           4            92   77     2      -0.1856001469E-02      63   81    1      -0.1060366178E+02      0.1086260323E+02      0.1984513114E+03     -0.1856001469E-02

    ------------------------------------------------
       NWT REQUIRED            4 OUTER ITERATIONS 
       AND A TOTAL OF         28 INNER ITERATIONS.
    ------------------------------------------------

 NO OUTPUT CONTROL FOR STRESS PERIOD    5   TIME STEP    1
 
 SOLVING FOR HEAD 
                                                   Max.-Head-Change                        Max.-Flux-Residual
  Residual-Control   Outer-Iter.   Inner-Iter.     Column Row Layer    Max.-Head-Change    Column Row Layer    Max.-Flux-Residual            L2-New               L2-Old           Solver-Max-Delh
          0                 1          10            81   45     1       0.2751118115E+01      81   45    1       0.8502511980E+05      0.2566958901E+06      0.1086260323E+02      0.2751118115E+01
          0                 2           9            81   45     1      -0.2504063261E+00      81   45    1      -0.8515938482E+04      0.2550435041E+05      0.2566958901E+06     -0.2504063261E+00
          0                 3           4            92   77     2      -0.2480971386E-03      79   49    1      -0.3596069090E+01      0.6190629005E+01      0.2550435041E+05     -0.2480971386E-03

    ------------------------------------------------
       NWT REQUIRED            3 OUTER ITERATIONS 
       AND A TOTAL OF         23 INNER ITERATIONS.
    ------------------------------------------------

 NO OUTPUT CONTROL FOR STRESS PERIOD    5   TIME STEP    2
 
 SOLVING FOR HEAD 
                                                   Max.-Head-Change                        Max.-Flux-Residual
  Residual-Control   Outer-Iter.   Inner-Iter.     Column Row Layer    Max.-Head-Change    Column Row Layer    Max.-Flux-Residual            L2-New               L2-Old           Solver-Max-Delh
          0                 1          10            81   45     1       0.2406099326E+01      81   45    1       0.7432158745E+05      0.2182141268E+06      0.6190629005E+01      0.2406099326E+01
          0                 2           9            81   45     1      -0.2188880985E+00      81   45    1      -0.7442194545E+04      0.2185250975E+05      0.2182141268E+06     -0.2188880985E+00
          0                 3           4            81   45     2      -0.9248589499E-03      81   45    2      -0.5364923953E+01      0.8621399194E+01      0.2185250975E+05     -0.9248589499E-03

    ------------------------------------------------
       NWT REQUIRED            3 OUTER ITERATIONS 
       AND A TOTAL OF         23 INNER ITERATIONS.
    ------------------------------------------------

 NO OUTPUT CONTROL FOR STRESS PERIOD    5   TIME STEP    3
 
 SOLVING FOR HEAD 
                                                   Max.-Head-Change                        Max.-Flux-Residual
  Residual-Control   Outer-Iter.   Inner-Iter.     Column Row Layer    Max.-Head-Change    Column Row Layer    Max.-Flux-Residual            L2-New               L2-Old           Solver-Max-Delh
          0                 1          10            81   45     1       0.2105561406E+01      81   46    1       0.6603973513E+05      0.1973599760E+06      0.8621399194E+01      0.2105561406E+01
          0                 2           9            81   45     1      -0.1928815529E+00      81   45    1      -0.6507800376E+04      0.1951262904E+05      0.1973599760E+06     -0.1928815529E+00
          0                 3           4            80   45     1      -0.2435744083E-03      91   67    1      -0.6241875067E+00      0.3362911694E+01      0.1951262904E+05     -0.2435744083E-03

    ------------------------------------------------
       NWT REQUIRED            3 OUTER ITERATIONS 
       AND A TOTAL OF         23 INNER ITERATIONS.
    ------------------------------------------------

 NO OUTPUT CONTROL FOR STRESS PERIOD    5   TIME STEP    4
 
 SOLVING FOR HEAD 
                                                   Max.-Head-Change                        Max.-Flux-Residual
  Residual-Control   Outer-Iter.   Inner-Iter.     Column Row Layer    Max.-Head-Change    Column Row Layer    Max.-Flux-Residual            L2-New               L2-Old           Solver-Max-Delh
          0                 1          10            81   46     1       0.1848106673E+01      81   46    1       0.5923656218E+05      0.1829150091E+06      0.3362911694E+01      0.1848106673E+01
          0                 2           9            81   46     1      -0.1681256520E+00      81   46    1      -0.5928713472E+04      0.1838524296E+05      0.1829150091E+06     -0.1681256520E+00
          0                 3           4            78   45     2      -0.4588255152E-03      78   45    2      -0.1465512030E+02      0.2098440070E+02      0.1838524296E+05     -0.4588255152E-03

    ------------------------------------------------
       NWT REQUIRED            3 OUTER ITERATIONS 
       AND A TOTAL OF         23 INNER ITERATIONS.
    ------------------------------------------------

 NO OUTPUT CONTROL FOR STRESS PERIOD    5   TIME STEP    5
 
 SOLVING FOR HEAD 
                                                   Max.-Head-Change                        Max.-Flux-Residual
  Residual-Control   Outer-Iter.   Inner-Iter.     Column Row Layer    Max.-Head-Change    Column Row Layer    Max.-Flux-Residual            L2-New               L2-Old           Solver-Max-Delh
          0                 1          10            81   46     1       0.1796005166E+01      81   46    1       0.5761487642E+05      0.1732457962E+06      0.2098440070E+02      0.1796005166E+01
          0                 2           9            81   46     1      -0.1633866819E+00      81   46    1      -0.5766500374E+04      0.1737026767E+05      0.1732457962E+06     -0.1633866819E+00
          0                 3           4            80   45     1      -0.3041946745E-03      91   67    1      -0.5677082725E+00      0.3312476495E+01      0.1737026767E+05     -0.3041946745E-03

    ------------------------------------------------
       NWT REQUIRED            3 OUTER ITERATIONS 
       AND A TOTAL OF         23 INNER ITERATIONS.
    ------------------------------------------------

 NO OUTPUT CONTROL FOR STRESS PERIOD    5   TIME STEP    6
 
 SOLVING FOR HEAD 
                                                   Max.-Head-Change                        Max.-Flux-Residual
  Residual-Control   Outer-Iter.   Inner-Iter.     Column Row Layer    Max.-Head-Change    Column Row Layer    Max.-Flux-Residual            L2-New               L2-Old           Solver-Max-Delh
          0                 1          10            81   46     1       0.1744078333E+01      81   46    1       0.5599118642E+05      0.1655433297E+06      0.3312476495E+01      0.1744078333E+01
          0                 2           9            81   46     1      -0.1586638115E+00      81   46    1      -0.5604008950E+04      0.1655925407E+05      0.1655433297E+06     -0.1586638115E+00
          0                 3           4            80   45     1      -0.3313307369E-03      80   45    1      -0.5642563049E+00      0.3296237477E+01      0.1655925407E+05     -0.3313307369E-03

    ------------------------------------------------
       NWT REQUIRED            3 OUTER ITERATIONS 
       AND A TOTAL OF         23 INNER ITERATIONS.
    ------------------------------------------------

 NO OUTPUT CONTROL FOR STRESS PERIOD    5   TIME STEP    7
 
 SOLVING FOR HEAD 
                                                   Max.-Head-Change                        Max.-Flux-Residual
  Residual-Control   Outer-Iter.   Inner-Iter.     Column Row Layer    Max.-Head-Change    Column Row Layer    Max.-Flux-Residual            L2-New               L2-Old           Solver-Max-Delh
          0                 1          10            81   46     1       0.1692527982E+01      81   46    1       0.5437288662E+05      0.1592599137E+06      0.3296237477E+01      0.1692527982E+01
          0                 2           9            81   46     1      -0.1548758118E+00      81   46    1      -0.5478782092E+04      0.1637098885E+05      0.1592599137E+06     -0.1548758118E+00
          0                 3           4            58  101     1       0.4136321266E-02      58  101    1       0.1128047924E+03      0.1180290612E+03      0.1637098885E+05      0.4136321266E-02

    ------------------------------------------------
       NWT REQUIRED            3 OUTER ITERATIONS 
       AND A TOTAL OF         23 INNER ITERATIONS.
    ------------------------------------------------

 NO OUTPUT CONTROL FOR STRESS PERIOD    5   TIME STEP    8
 
 SOLVING FOR HEAD 
                                                   Max.-Head-Change                        Max.-Flux-Residual
  Residual-Control   Outer-Iter.   Inner-Iter.     Column Row Layer    Max.-Head-Change    Column Row Layer    Max.-Flux-Residual            L2-New               L2-Old           Solver-Max-Delh
          0                 1          10            81   46     1       0.1639297950E+01      81   46    1       0.5273536980E+05      0.1538725293E+06      0.1180290612E+03      0.1639297950E+01
          0                 2           9            81   46     1      -0.1487442835E+00      81   46    1      -0.5279426125E+04      0.1508107478E+05      0.1538725293E+06     -0.1487442835E+00
          0                 3           4            80   45     1      -0.3146151818E-03      58  101    1       0.5405625105E+00      0.3314483749E+01      0.1508107478E+05     -0.3146151818E-03

    ------------------------------------------------
       NWT REQUIRED            3 OUTER ITERATIONS 
       AND A TOTAL OF         23 INNER ITERATIONS.
    ------------------------------------------------

 NO OUTPUT CONTROL FOR STRESS PERIOD    5   TIME STEP    9
 
 SOLVING FOR HEAD 
                                                   Max.-Head-Change                        Max.-Flux-Residual
  Residual-Control   Outer-Iter.   Inner-Iter.     Column Row Layer    Max.-Head-Change    Column Row Layer    Max.-Flux-Residual            L2-New               L2-Old           Solver-Max-Delh
          0                 1          10            81   46     1       0.1589342774E+01      81   46    1       0.5112058788E+05      0.1496755797E+06      0.3314483749E+01      0.1589342774E+01
          0                 2           9            81   46     1      -0.1446102894E+00      81   46    1      -0.5117559603E+04      0.1497030567E+05      0.1496755797E+06     -0.1446102894E+00
          0                 3           4            80   45     1      -0.3819126447E-03      80   45    1      -0.6511789449E+00      0.3309780257E+01      0.1497030567E+05     -0.3819126447E-03

    ------------------------------------------------
       NWT REQUIRED            3 OUTER ITERATIONS 
       AND A TOTAL OF         23 INNER ITERATIONS.
    ------------------------------------------------

 NO OUTPUT CONTROL FOR STRESS PERIOD    5   TIME STEP   10
 
 SOLVING FOR HEAD 
                                                   Max.-Head-Change                        Max.-Flux-Residual
  Residual-Control   Outer-Iter.   Inner-Iter.     Column Row Layer    Max.-Head-Change    Column Row Layer    Max.-Flux-Residual            L2-New               L2-Old           Solver-Max-Delh
          0                 1          10            81   46     1       0.1540347825E+01      81   46    1       0.4954956815E+05      0.1462367574E+06      0.3309780257E+01      0.1540347825E+01
          0                 2           9            81   46     1      -0.1401482960E+00      81   46    1      -0.4960114956E+04      0.1462552811E+05      0.1462367574E+06     -0.1401482960E+00
          0                 3           4            80   45     1      -0.3960291367E-03      80   45    1      -0.6754982378E+00      0.3307559221E+01      0.1462552811E+05     -0.3960291367E-03

    ------------------------------------------------
       NWT REQUIRED            3 OUTER ITERATIONS 
       AND A TOTAL OF         23 INNER ITERATIONS.
    ------------------------------------------------

 NO OUTPUT CONTROL FOR STRESS PERIOD    5   TIME STEP   11
 
 SOLVING FOR HEAD 
                                                   Max.-Head-Change                        Max.-Flux-Residual
  Residual-Control   Outer-Iter.   Inner-Iter.     Column Row Layer    Max.-Head-Change    Column Row Layer    Max.-Flux-Residual            L2-New               L2-Old           Solver-Max-Delh
          0                 1          10            81   46     1       0.1492765525E+01      81   46    1       0.4802268072E+05      0.1432085295E+06      0.3307559221E+01      0.1492765525E+01
          0                 2           9            81   46     1      -0.1358151638E+00      81   46    1      -0.4807102328E+04      0.1433700548E+05      0.1432085295E+06     -0.1358151638E+00
          0                 3           4            80   45     1      -0.4085969573E-03      80   45    1      -0.6971825166E+00      0.3443414368E+01      0.1433700548E+05     -0.4085969573E-03

    ------------------------------------------------
       NWT REQUIRED            3 OUTER ITERATIONS 
       AND A TOTAL OF         23 INNER ITERATIONS.
    ------------------------------------------------

 OUTPUT CONTROL FOR STRESS PERIOD    5   TIME STEP   12
    SAVE BUDGET
 UBDSV1 SAVING "         STORAGE" ON UNIT  39 AT TIME STEP 12, STRESS PERIOD   5
 UBDSV2 SAVING "   CONSTANT HEAD" ON UNIT  39 AT TIME STEP 12, STRESS PERIOD   5
 UBDSV1 SAVING "FLOW RIGHT FACE " ON UNIT  39 AT TIME STEP 12, STRESS PERIOD   5
 UBDSV1 SAVING "FLOW FRONT FACE " ON UNIT  39 AT TIME STEP 12, STRESS PERIOD   5
 UBDSV1 SAVING "FLOW LOWER FACE " ON UNIT  39 AT TIME STEP 12, STRESS PERIOD   5
 UBDSV4 SAVING "           WELLS" ON UNIT  39 AT TIME STEP 12, STRESS PERIOD   5
 UBDSV3 SAVING "              ET" ON UNIT  39 AT TIME STEP 12, STRESS PERIOD   5
 UBDSV3 SAVING "        RECHARGE" ON UNIT  39 AT TIME STEP 12, STRESS PERIOD   5
1
  VOLUMETRIC BUDGET FOR ENTIRE MODEL AT END OF TIME STEP   12, STRESS PERIOD   5
  ------------------------------------------------------------------------------

     CUMULATIVE VOLUMES      L**3       RATES FOR THIS TIME STEP      L**3/T
     ------------------                 ------------------------

           IN:                                      IN:
           ---                                      ---
             STORAGE     =  7794127360.0000               STORAGE     =     5031086.5000
       CONSTANT HEAD     =  2185643008.0000         CONSTANT HEAD     =     1213880.0000
               WELLS     =  2239249664.0000                 WELLS     =     1225642.0000
                  ET     =           0.0000                    ET     =           0.0000
            RECHARGE     = 20202797056.0000              RECHARGE     =    11292591.0000

                TOTAL IN = 32421818368.0000                  TOTAL IN =    18763200.0000

          OUT:                                     OUT:
          ----                                     ----
             STORAGE     =  1892877184.0000               STORAGE     =      590451.6875
       CONSTANT HEAD     =  5833270784.0000         CONSTANT HEAD     =     3301465.0000
               WELLS     = 22005049344.0000                 WELLS     =    13445562.0000
                  ET     =  2690636032.0000                    ET     =     1425731.8750
            RECHARGE     =           0.0000              RECHARGE     =           0.0000

               TOTAL OUT = 32421832704.0000                 TOTAL OUT =    18763210.0000

                IN - OUT =      -14336.0000                  IN - OUT =         -10.0000

     PERCENT DISCREPANCY =          -0.00         PERCENT DISCREPANCY =          -0.00






         TIME SUMMARY AT END OF TIME STEP   12 IN STRESS PERIOD    5
                    SECONDS     MINUTES      HOURS       DAYS        YEARS
                    -----------------------------------------------------------
   TIME STEP LENGTH 2.63520E+06  43920.      732.00      30.500     8.35044E-02
 STRESS PERIOD TIME 3.16224E+07 5.27040E+05  8784.0      366.00      1.0021    
         TOTAL TIME 1.57853E+08 2.63088E+06  43848.      1827.0      5.0021    
1
1
                            STRESS PERIOD NO.    6, LENGTH =   365.0000    
                            -----------------------------------------------

                              NUMBER OF TIME STEPS =    12

                               MULTIPLIER FOR DELT =     1.000

                            INITIAL TIME STEP SIZE =   30.41667    

    812 WELLS

 REUSING SURF FROM LAST STRESS PERIOD

 REUSING EVTR FROM LAST STRESS PERIOD

 REUSING EXDP FROM LAST STRESS PERIOD



                           RECHARGE
 READING ON UNIT   16 WITH FORMAT: (15F5.0)            


     63 TIME-VARIANT SPECIFIED-HEAD CELLS
 
 SOLVING FOR HEAD 
                                                   Max.-Head-Change                        Max.-Flux-Residual
  Residual-Control   Outer-Iter.   Inner-Iter.     Column Row Layer    Max.-Head-Change    Column Row Layer    Max.-Flux-Residual            L2-New               L2-Old           Solver-Max-Delh
          0                 1          11            88   51     3      -0.3889154306E+01      29   20    2      -0.1729927308E+06      0.5155143087E+06      0.3443414368E+01     -0.3889154306E+01
          0                 2           9            88   51     3       0.3657077624E+00      60   61    1       0.1930538784E+05      0.5303051873E+05      0.5155143087E+06      0.3657077624E+00
          0                 3           4            88   50     3       0.1712235485E-01      88   50    3       0.9177193317E+02      0.1339676760E+03      0.5303051873E+05      0.1712235485E-01
          0                 4           3            88   51     3      -0.1400435473E-02      88   51    3      -0.6460307912E+01      0.6954194115E+01      0.1339676760E+03     -0.1400435473E-02

    ------------------------------------------------
       NWT REQUIRED            4 OUTER ITERATIONS 
       AND A TOTAL OF         27 INNER ITERATIONS.
    ------------------------------------------------

 NO OUTPUT CONTROL FOR STRESS PERIOD    6   TIME STEP    1
 
 SOLVING FOR HEAD 
                                                   Max.-Head-Change                        Max.-Flux-Residual
  Residual-Control   Outer-Iter.   Inner-Iter.     Column Row Layer    Max.-Head-Change    Column Row Layer    Max.-Flux-Residual            L2-New               L2-Old           Solver-Max-Delh
          0                 1          11            42   32     1      -0.2067405156E+01      42   32    1      -0.1053518063E+06      0.3061660916E+06      0.6954194115E+01     -0.2067405156E+01
          0                 2           9            42   32     1       0.1835572039E+00      42   32    1       0.1013982865E+05      0.3032686746E+05      0.3061660916E+06      0.1835572039E+00
          0                 3           4            82   53     1      -0.3155346478E-03      19   75    1       0.3633608043E+01      0.8318887541E+01      0.3032686746E+05     -0.3155346478E-03

    ------------------------------------------------
       NWT REQUIRED            3 OUTER ITERATIONS 
       AND A TOTAL OF         24 INNER ITERATIONS.
    ------------------------------------------------

 NO OUTPUT CONTROL FOR STRESS PERIOD    6   TIME STEP    2
 
 SOLVING FOR HEAD 
                                                   Max.-Head-Change                        Max.-Flux-Residual
  Residual-Control   Outer-Iter.   Inner-Iter.     Column Row Layer    Max.-Head-Change    Column Row Layer    Max.-Flux-Residual            L2-New               L2-Old           Solver-Max-Delh
          0                 1          11            42   32     1      -0.1499314113E+01      42   32    1      -0.7339527644E+05      0.2269764454E+06      0.8318887541E+01     -0.1499314113E+01
          0                 2           9            31   18     1      -0.2686327983E+00      42   32    1       0.7155042549E+04      0.2297492242E+05      0.2269764454E+06     -0.2686327983E+00
          0                 3           4            31   18     1       0.2393930754E-01      31   18    1       0.3956934075E+03      0.4117114265E+03      0.2297492242E+05      0.2393930754E-01
          0                 4           2            31   18     1       0.4342785510E-04      31   18    1       0.6691559106E+00      0.7189263469E+00      0.4117114265E+03      0.4342785510E-04

    ------------------------------------------------
       NWT REQUIRED            4 OUTER ITERATIONS 
       AND A TOTAL OF         26 INNER ITERATIONS.
    ------------------------------------------------

 NO OUTPUT CONTROL FOR STRESS PERIOD    6   TIME STEP    3

 INTERPOLATION FOR HEAD OBS# 5684, ID 1179-6-115   CHANGED BECAUSE AT LEAST ONE
 NEIGHBORING CELL REQUIRED FOR INTERPOLATION IS DRY OR INACTIVE (OBS2BAS7SE)
 
 SOLVING FOR HEAD 
                                                   Max.-Head-Change                        Max.-Flux-Residual
  Residual-Control   Outer-Iter.   Inner-Iter.     Column Row Layer    Max.-Head-Change    Column Row Layer    Max.-Flux-Residual            L2-New               L2-Old           Solver-Max-Delh
          0                 1          10            42   32     1      -0.1131582540E+01      42   32    1      -0.5318338960E+05      0.1892556871E+06      0.7189263469E+00     -0.1131582540E+01
          0                 2           9            81   45     1       0.1595153819E+00      81   45    1       0.5486929703E+04      0.1941797841E+05      0.1892556871E+06      0.1595153819E+00
          0                 3           3            80   45     3      -0.2022903100E-03      72   49    1      -0.4287239708E+01      0.7552315088E+01      0.1941797841E+05     -0.2022903100E-03

    ------------------------------------------------
       NWT REQUIRED            3 OUTER ITERATIONS 
       AND A TOTAL OF         22 INNER ITERATIONS.
    ------------------------------------------------

 NO OUTPUT CONTROL FOR STRESS PERIOD    6   TIME STEP    4
 
 SOLVING FOR HEAD 
                                                   Max.-Head-Change                        Max.-Flux-Residual
  Residual-Control   Outer-Iter.   Inner-Iter.     Column Row Layer    Max.-Head-Change    Column Row Layer    Max.-Flux-Residual            L2-New               L2-Old           Solver-Max-Delh
          0                 1          10            81   45     1      -0.8971414894E+00      42   32    1      -0.4011926033E+05      0.1669780275E+06      0.7552315088E+01     -0.8971414894E+00
          0                 2           9            81   45     1       0.8148423929E-01      42   32    1       0.3961859887E+04      0.1665446047E+05      0.1669780275E+06      0.8148423929E-01
          0                 3           3            66    8     3       0.1834426750E-03      66    8    3       0.3860486154E+01      0.5366339773E+01      0.1665446047E+05      0.1834426750E-03

    ------------------------------------------------
       NWT REQUIRED            3 OUTER ITERATIONS 
       AND A TOTAL OF         22 INNER ITERATIONS.
    ------------------------------------------------

 NO OUTPUT CONTROL FOR STRESS PERIOD    6   TIME STEP    5
 
 SOLVING FOR HEAD 
                                                   Max.-Head-Change                        Max.-Flux-Residual
  Residual-Control   Outer-Iter.   Inner-Iter.     Column Row Layer    Max.-Head-Change    Column Row Layer    Max.-Flux-Residual            L2-New               L2-Old           Solver-Max-Delh
          0                 1          10            81   45     1      -0.7782400991E+00      42   32    1      -0.3142307207E+05      0.1521786056E+06      0.5366339773E+01     -0.7782400991E+00
          0                 2           9            81   45     1       0.7072130988E-01      42   32    1       0.3113276307E+04      0.1520108150E+05      0.1521786056E+06      0.7072130988E-01
          0                 3           3            79   46     1      -0.1469668227E-03      19   75    1       0.1425691843E+01      0.3509700948E+01      0.1520108150E+05     -0.1469668227E-03

    ------------------------------------------------
       NWT REQUIRED            3 OUTER ITERATIONS 
       AND A TOTAL OF         22 INNER ITERATIONS.
    ------------------------------------------------

 NO OUTPUT CONTROL FOR STRESS PERIOD    6   TIME STEP    6
 
 SOLVING FOR HEAD 
                                                   Max.-Head-Change                        Max.-Flux-Residual
  Residual-Control   Outer-Iter.   Inner-Iter.     Column Row Layer    Max.-Head-Change    Column Row Layer    Max.-Flux-Residual            L2-New               L2-Old           Solver-Max-Delh
          0                 1          10            81   45     1      -0.6753994266E+00      42   32    1      -0.2544678381E+05      0.1417177368E+06      0.3509700948E+01     -0.6753994266E+00
          0                 2           9            81   45     1       0.6137993673E-01      42   32    1       0.2526725400E+04      0.1416421717E+05      0.1417177368E+06      0.6137993673E-01
          0                 3           3            79   46     1      -0.1407127825E-03      19   75    1       0.1157860920E+01      0.3366630772E+01      0.1416421717E+05     -0.1407127825E-03

    ------------------------------------------------
       NWT REQUIRED            3 OUTER ITERATIONS 
       AND A TOTAL OF         22 INNER ITERATIONS.
    ------------------------------------------------

 NO OUTPUT CONTROL FOR STRESS PERIOD    6   TIME STEP    7
 
 SOLVING FOR HEAD 
                                                   Max.-Head-Change                        Max.-Flux-Residual
  Residual-Control   Outer-Iter.   Inner-Iter.     Column Row Layer    Max.-Head-Change    Column Row Layer    Max.-Flux-Residual            L2-New               L2-Old           Solver-Max-Delh
          0                 1          10            81   45     1      -0.5864474921E+00      42   32    1      -0.2120738533E+05      0.1339681281E+06      0.3366630772E+01     -0.5864474921E+00
          0                 2           9            81   45     1       0.5329908638E-01      42   32    1       0.2108978809E+04      0.1339119048E+05      0.1339681281E+06      0.5329908638E-01
          0                 3           3            79   46     1      -0.1347827203E-03      19   75    1       0.9502629489E+00      0.3273315774E+01      0.1339119048E+05     -0.1347827203E-03

    ------------------------------------------------
       NWT REQUIRED            3 OUTER ITERATIONS 
       AND A TOTAL OF         22 INNER ITERATIONS.
    ------------------------------------------------

 NO OUTPUT CONTROL FOR STRESS PERIOD    6   TIME STEP    8
 
 SOLVING FOR HEAD 
                                                   Max.-Head-Change                        Max.-Flux-Residual
  Residual-Control   Outer-Iter.   Inner-Iter.     Column Row Layer    Max.-Head-Change    Column Row Layer    Max.-Flux-Residual            L2-New               L2-Old           Solver-Max-Delh
          0                 1          10            81   45     1      -0.5094815748E+00      42   32    1      -0.1810873916E+05      0.1280160987E+06      0.3273315774E+01     -0.5094815748E+00
          0                 2           9            42   35     2       0.5190572449E-01      42   35    2       0.5295417011E+04      0.1415050984E+05      0.1280160987E+06      0.5190572449E-01
          0                 3           3            79   46     1      -0.1291543018E-03      42   35    1       0.1027379632E+01      0.3418021409E+01      0.1415050984E+05     -0.1291543018E-03

    ------------------------------------------------
       NWT REQUIRED            3 OUTER ITERATIONS 
       AND A TOTAL OF         22 INNER ITERATIONS.
    ------------------------------------------------

 NO OUTPUT CONTROL FOR STRESS PERIOD    6   TIME STEP    9

 INTERPOLATION FOR HEAD OBS# 1010, ID 2643-6-284   CHANGED BECAUSE AT LEAST ONE
 NEIGHBORING CELL REQUIRED FOR INTERPOLATION IS DRY OR INACTIVE (OBS2BAS7SE)
 
 SOLVING FOR HEAD 
                                                   Max.-Head-Change                        Max.-Flux-Residual
  Residual-Control   Outer-Iter.   Inner-Iter.     Column Row Layer    Max.-Head-Change    Column Row Layer    Max.-Flux-Residual            L2-New               L2-Old           Solver-Max-Delh
          0                 1          10            81   45     1      -0.4428641633E+00      42   32    1      -0.1577632399E+05      0.1232372486E+06      0.3418021409E+01     -0.4428641633E+00
          0                 2           9            78   61     1      -0.3212257440E+00      19   74    2       0.1712852004E+04      0.1244777400E+05      0.1232372486E+06     -0.3212257440E+00
          0                 3           4            78   61     1       0.2483744281E-01      78   61    1       0.4268059273E+02      0.4471653823E+02      0.1244777400E+05      0.2483744281E-01
          0                 4           2            78   61     1       0.3374328145E-03      78   61    1       0.5728149898E+00      0.5898416595E+00      0.4471653823E+02      0.3374328145E-03

    ------------------------------------------------
       NWT REQUIRED            4 OUTER ITERATIONS 
       AND A TOTAL OF         25 INNER ITERATIONS.
    ------------------------------------------------

 NO OUTPUT CONTROL FOR STRESS PERIOD    6   TIME STEP   10
 
 SOLVING FOR HEAD 
                                                   Max.-Head-Change                        Max.-Flux-Residual
  Residual-Control   Outer-Iter.   Inner-Iter.     Column Row Layer    Max.-Head-Change    Column Row Layer    Max.-Flux-Residual            L2-New               L2-Old           Solver-Max-Delh
          0                 1          10            81   46     1      -0.4029256554E+00      42   32    1      -0.1398402357E+05      0.1195201095E+06      0.5898416595E+00     -0.4029256554E+00
          0                 2           9            58   79     2       0.4479500295E-01      58   79    2       0.1808238963E+04      0.1209158846E+05      0.1195201095E+06      0.4479500295E-01
          0                 3           4            58   79     1      -0.8152521026E-02      58   79    1      -0.4377657218E+03      0.4377854774E+03      0.1209158846E+05     -0.8152521026E-02

    ------------------------------------------------
       NWT REQUIRED            3 OUTER ITERATIONS 
       AND A TOTAL OF         23 INNER ITERATIONS.
    ------------------------------------------------

 NO OUTPUT CONTROL FOR STRESS PERIOD    6   TIME STEP   11
 
 SOLVING FOR HEAD 
                                                   Max.-Head-Change                        Max.-Flux-Residual
  Residual-Control   Outer-Iter.   Inner-Iter.     Column Row Layer    Max.-Head-Change    Column Row Layer    Max.-Flux-Residual            L2-New               L2-Old           Solver-Max-Delh
          0                 1          10            81   46     1      -0.3889165572E+00      81   46    1      -0.1259731567E+05      0.1163898079E+06      0.4377854774E+03     -0.3889165572E+00
          0                 2           9            58   79     1      -0.7136528778E-01      58   79    1      -0.1299637082E+04      0.1170709368E+05      0.1163898079E+06     -0.7136528778E-01
          0                 3           4            58   79     1       0.6373724073E-02      58   79    1       0.1278196399E+03      0.1311942724E+03      0.1170709368E+05      0.6373724073E-02

    ------------------------------------------------
       NWT REQUIRED            3 OUTER ITERATIONS 
       AND A TOTAL OF         23 INNER ITERATIONS.
    ------------------------------------------------

 OUTPUT CONTROL FOR STRESS PERIOD    6   TIME STEP   12
    SAVE BUDGET
    SAVE HEAD FOR LAYERS:   1  2  3
 UBDSV1 SAVING "         STORAGE" ON UNIT  39 AT TIME STEP 12, STRESS PERIOD   6
 UBDSV2 SAVING "   CONSTANT HEAD" ON UNIT  39 AT TIME STEP 12, STRESS PERIOD   6
 UBDSV1 SAVING "FLOW RIGHT FACE " ON UNIT  39 AT TIME STEP 12, STRESS PERIOD   6
 UBDSV1 SAVING "FLOW FRONT FACE " ON UNIT  39 AT TIME STEP 12, STRESS PERIOD   6
 UBDSV1 SAVING "FLOW LOWER FACE " ON UNIT  39 AT TIME STEP 12, STRESS PERIOD   6
 UBDSV4 SAVING "           WELLS" ON UNIT  39 AT TIME STEP 12, STRESS PERIOD   6
 UBDSV3 SAVING "              ET" ON UNIT  39 AT TIME STEP 12, STRESS PERIOD   6
 UBDSV3 SAVING "        RECHARGE" ON UNIT  39 AT TIME STEP 12, STRESS PERIOD   6

 HEAD WILL BE SAVED ON UNIT   31 AT END OF TIME STEP   12, STRESS PERIOD    6
1
  VOLUMETRIC BUDGET FOR ENTIRE MODEL AT END OF TIME STEP   12, STRESS PERIOD   6
  ------------------------------------------------------------------------------

     CUMULATIVE VOLUMES      L**3       RATES FOR THIS TIME STEP      L**3/T
     ------------------                 ------------------------

           IN:                                      IN:
           ---                                      ---
             STORAGE     =  9581793280.0000               STORAGE     =     4449243.0000
       CONSTANT HEAD     =  2620892672.0000         CONSTANT HEAD     =     1186611.6250
               WELLS     =  2686609664.0000                 WELLS     =     1225642.0000
                  ET     =           0.0000                    ET     =           0.0000
            RECHARGE     = 25174079488.0000              RECHARGE     =    13619969.0000

                TOTAL IN = 40063377408.0000                  TOTAL IN =    20481466.0000

          OUT:                                     OUT:
          ----                                     ----
             STORAGE     =  2164061696.0000               STORAGE     =      292944.3750
       CONSTANT HEAD     =  7030426112.0000         CONSTANT HEAD     =     3312793.7500
               WELLS     = 27675617280.0000                 WELLS     =    15535810.0000
                  ET     =  3193294080.0000                    ET     =     1339928.7500
            RECHARGE     =           0.0000              RECHARGE     =           0.0000

               TOTAL OUT = 40063397888.0000                 TOTAL OUT =    20481476.0000

                IN - OUT =      -20480.0000                  IN - OUT =         -10.0000

     PERCENT DISCREPANCY =          -0.00         PERCENT DISCREPANCY =          -0.00






         TIME SUMMARY AT END OF TIME STEP   12 IN STRESS PERIOD    6
                    SECONDS     MINUTES      HOURS       DAYS        YEARS
                    -----------------------------------------------------------
   TIME STEP LENGTH 2.62800E+06  43800.      730.00      30.417     8.32763E-02
 STRESS PERIOD TIME 3.15360E+07 5.25600E+05  8760.0      365.00     0.99932    
         TOTAL TIME 1.89389E+08 3.15648E+06  52608.      2192.0      6.0014    
1
1
                            STRESS PERIOD NO.    7, LENGTH =   365.0000    
                            -----------------------------------------------

                              NUMBER OF TIME STEPS =    12

                               MULTIPLIER FOR DELT =     1.000

                            INITIAL TIME STEP SIZE =   30.41667    

    823 WELLS

 REUSING SURF FROM LAST STRESS PERIOD

 REUSING EVTR FROM LAST STRESS PERIOD

 REUSING EXDP FROM LAST STRESS PERIOD



                           RECHARGE
 READING ON UNIT   16 WITH FORMAT: (15F5.0)            


     63 TIME-VARIANT SPECIFIED-HEAD CELLS
 
 SOLVING FOR HEAD 
                                                   Max.-Head-Change                        Max.-Flux-Residual
  Residual-Control   Outer-Iter.   Inner-Iter.     Column Row Layer    Max.-Head-Change    Column Row Layer    Max.-Flux-Residual            L2-New               L2-Old           Solver-Max-Delh
          0                 1          11            92   77     2       0.5390453921E+01      59   49    1      -0.1420837717E+06      0.5134539751E+06      0.1311942724E+03      0.5390453921E+01
          0                 2          10            19    5     2       0.2759008643E+00      59   49    1       0.1336609538E+05      0.5136728957E+05      0.5134539751E+06      0.2759008643E+00
          0                 3           4            92   77     2       0.5116216107E-02      35   23    1      -0.2863650240E+02      0.5996334069E+02      0.5136728957E+05      0.5116216107E-02

    ------------------------------------------------
       NWT REQUIRED            3 OUTER ITERATIONS 
       AND A TOTAL OF         25 INNER ITERATIONS.
    ------------------------------------------------

 NO OUTPUT CONTROL FOR STRESS PERIOD    7   TIME STEP    1
 
 SOLVING FOR HEAD 
                                                   Max.-Head-Change                        Max.-Flux-Residual
  Residual-Control   Outer-Iter.   Inner-Iter.     Column Row Layer    Max.-Head-Change    Column Row Layer    Max.-Flux-Residual            L2-New               L2-Old           Solver-Max-Delh
          0                 1          11            70   47     1       0.1621124241E+01      59   49    1      -0.6649360210E+05      0.3222527927E+06      0.5996334069E+02      0.1621124241E+01
          0                 2           9            70   47     1      -0.1479284015E+00      67   47    1      -0.7326005132E+04      0.3248369152E+05      0.3222527927E+06     -0.1479284015E+00
          0                 3           4            88   67     1      -0.1355547884E-03      59   49    1      -0.1705921859E+01      0.4818136832E+01      0.3248369152E+05     -0.1355547884E-03

    ------------------------------------------------
       NWT REQUIRED            3 OUTER ITERATIONS 
       AND A TOTAL OF         24 INNER ITERATIONS.
    ------------------------------------------------

 NO OUTPUT CONTROL FOR STRESS PERIOD    7   TIME STEP    2
 
 SOLVING FOR HEAD 
                                                   Max.-Head-Change                        Max.-Flux-Residual
  Residual-Control   Outer-Iter.   Inner-Iter.     Column Row Layer    Max.-Head-Change    Column Row Layer    Max.-Flux-Residual            L2-New               L2-Old           Solver-Max-Delh
          0                 1          10            70   47     1       0.1415796734E+01      70   47    1       0.5744390388E+05      0.2586823696E+06      0.4818136832E+01      0.1415796734E+01
          0                 2           9            57  102     2      -0.1365965866E+00      70   47    1      -0.5766413030E+04      0.2594079226E+05      0.2586823696E+06     -0.1365965866E+00
          0                 3           4            57  102     2       0.1190104601E-01      57  102    2       0.9433823242E+02      0.1015886826E+03      0.2594079226E+05      0.1190104601E-01
          0                 4           2            57  102     2       0.4561241259E-04      57  102    2       0.3347729184E+00      0.3621156994E+00      0.1015886826E+03      0.4561241259E-04

    ------------------------------------------------
       NWT REQUIRED            4 OUTER ITERATIONS 
       AND A TOTAL OF         25 INNER ITERATIONS.
    ------------------------------------------------

 NO OUTPUT CONTROL FOR STRESS PERIOD    7   TIME STEP    3
 
 SOLVING FOR HEAD 
                                                   Max.-Head-Change                        Max.-Flux-Residual
  Residual-Control   Outer-Iter.   Inner-Iter.     Column Row Layer    Max.-Head-Change    Column Row Layer    Max.-Flux-Residual            L2-New               L2-Old           Solver-Max-Delh
          0                 1          10            70   47     1       0.1242046772E+01      70   47    1       0.5017171228E+05      0.2250396673E+06      0.3621156994E+00      0.1242046772E+01
          0                 2           9            70   47     1      -0.1128036347E+00      70   47    1      -0.5032924154E+04      0.2252370788E+05      0.2250396673E+06     -0.1128036347E+00
          0                 3           4            15   33     3       0.2263973553E-03      16   33    3      -0.1092734323E+02      0.1847362076E+02      0.2252370788E+05      0.2263973553E-03

    ------------------------------------------------
       NWT REQUIRED            3 OUTER ITERATIONS 
       AND A TOTAL OF         23 INNER ITERATIONS.
    ------------------------------------------------

 NO OUTPUT CONTROL FOR STRESS PERIOD    7   TIME STEP    4
 
 SOLVING FOR HEAD 
                                                   Max.-Head-Change                        Max.-Flux-Residual
  Residual-Control   Outer-Iter.   Inner-Iter.     Column Row Layer    Max.-Head-Change    Column Row Layer    Max.-Flux-Residual            L2-New               L2-Old           Solver-Max-Delh
          0                 1          10            70   47     1       0.1096005531E+01      70   47    1       0.4403292474E+05      0.2034995629E+06      0.1847362076E+02      0.1096005531E+01
          0                 2           9            70   47     1      -0.9985956704E-01      70   47    1      -0.4414594018E+04      0.2036612416E+05      0.2034995629E+06     -0.9985956704E-01
          0                 3           4            88   67     1      -0.1276444983E-03      45   28    1       0.5456666872E+00      0.3450708966E+01      0.2036612416E+05     -0.1276444983E-03

    ------------------------------------------------
       NWT REQUIRED            3 OUTER ITERATIONS 
       AND A TOTAL OF         23 INNER ITERATIONS.
    ------------------------------------------------

 NO OUTPUT CONTROL FOR STRESS PERIOD    7   TIME STEP    5
 
 SOLVING FOR HEAD 
                                                   Max.-Head-Change                        Max.-Flux-Residual
  Residual-Control   Outer-Iter.   Inner-Iter.     Column Row Layer    Max.-Head-Change    Column Row Layer    Max.-Flux-Residual            L2-New               L2-Old           Solver-Max-Delh
          0                 1          10            70   47     1       0.9711598039E+00      70   47    1       0.3884327248E+05      0.1882795861E+06      0.3450708966E+01      0.9711598039E+00
          0                 2           9            70   47     1      -0.8850984980E-01      70   47    1      -0.3892460647E+04      0.1895246748E+05      0.1882795861E+06     -0.8850984980E-01
          0                 3           4            80   45     1      -0.1296136621E-03      45   28    1       0.5515435860E+00      0.3439961384E+01      0.1895246748E+05     -0.1296136621E-03

    ------------------------------------------------
       NWT REQUIRED            3 OUTER ITERATIONS 
       AND A TOTAL OF         23 INNER ITERATIONS.
    ------------------------------------------------

 NO OUTPUT CONTROL FOR STRESS PERIOD    7   TIME STEP    6
 
 SOLVING FOR HEAD 
                                                   Max.-Head-Change                        Max.-Flux-Residual
  Residual-Control   Outer-Iter.   Inner-Iter.     Column Row Layer    Max.-Head-Change    Column Row Layer    Max.-Flux-Residual            L2-New               L2-Old           Solver-Max-Delh
          0                 1          10            71   47     1       0.8927162338E+00      70   47    1       0.3441786122E+05      0.1768670245E+06      0.3439961384E+01      0.8927162338E+00
          0                 2           9            71   47     1      -0.8127703185E-01      70   47    1      -0.3447679145E+04      0.1769064167E+05      0.1768670245E+06     -0.8127703185E-01
          0                 3           4            80   45     1      -0.1322358551E-03      45   28    1       0.5534989312E+00      0.3441271460E+01      0.1769064167E+05     -0.1322358551E-03

    ------------------------------------------------
       NWT REQUIRED            3 OUTER ITERATIONS 
       AND A TOTAL OF         23 INNER ITERATIONS.
    ------------------------------------------------

 NO OUTPUT CONTROL FOR STRESS PERIOD    7   TIME STEP    7
 
 SOLVING FOR HEAD 
                                                   Max.-Head-Change                        Max.-Flux-Residual
  Residual-Control   Outer-Iter.   Inner-Iter.     Column Row Layer    Max.-Head-Change    Column Row Layer    Max.-Flux-Residual            L2-New               L2-Old           Solver-Max-Delh
          0                 1          10            71   47     1       0.8267533790E+00      71   47    1       0.3163640773E+05      0.1680160189E+06      0.3441271460E+01      0.8267533790E+00
          0                 2           9            71   47     1      -0.7526802996E-01      71   47    1      -0.3169691209E+04      0.1689774045E+05      0.1680160189E+06     -0.7526802996E-01
          0                 3           4            80   45     1      -0.1341848829E-03      45   28    1       0.5527902693E+00      0.3463100247E+01      0.1689774045E+05     -0.1341848829E-03

    ------------------------------------------------
       NWT REQUIRED            3 OUTER ITERATIONS 
       AND A TOTAL OF         23 INNER ITERATIONS.
    ------------------------------------------------

 NO OUTPUT CONTROL FOR STRESS PERIOD    7   TIME STEP    8
 
 SOLVING FOR HEAD 
                                                   Max.-Head-Change                        Max.-Flux-Residual
  Residual-Control   Outer-Iter.   Inner-Iter.     Column Row Layer    Max.-Head-Change    Column Row Layer    Max.-Flux-Residual            L2-New               L2-Old           Solver-Max-Delh
          0                 1          10            71   47     1       0.7660903209E+00      71   47    1       0.2929905238E+05      0.1609758093E+06      0.3463100247E+01      0.7660903209E+00
          0                 2           9            71   47     1      -0.6974093836E-01      71   47    1      -0.2935305263E+04      0.1621214297E+05      0.1609758093E+06     -0.6974093836E-01
          0                 3           4            49   33     1       0.4511326777E-02      49   33    1       0.1915782693E+03      0.2047349955E+03      0.1621214297E+05      0.4511326777E-02

    ------------------------------------------------
       NWT REQUIRED            3 OUTER ITERATIONS 
       AND A TOTAL OF         23 INNER ITERATIONS.
    ------------------------------------------------

 NO OUTPUT CONTROL FOR STRESS PERIOD    7   TIME STEP    9
 
 SOLVING FOR HEAD 
                                                   Max.-Head-Change                        Max.-Flux-Residual
  Residual-Control   Outer-Iter.   Inner-Iter.     Column Row Layer    Max.-Head-Change    Column Row Layer    Max.-Flux-Residual            L2-New               L2-Old           Solver-Max-Delh
          0                 1          10            71   47     1       0.7103695551E+00      71   47    1       0.2714951152E+05      0.1552740365E+06      0.2047349955E+03      0.7103695551E+00
          0                 2           9            83   45     2       0.9919115634E-01      66   46    1      -0.3253869227E+04      0.1584292301E+05      0.1552740365E+06      0.9919115634E-01
          0                 3           4            83   45     2      -0.9017567757E-02      83   45    2      -0.5969733439E+02      0.6195481573E+02      0.1584292301E+05     -0.9017567757E-02

    ------------------------------------------------
       NWT REQUIRED            3 OUTER ITERATIONS 
       AND A TOTAL OF         23 INNER ITERATIONS.
    ------------------------------------------------

 NO OUTPUT CONTROL FOR STRESS PERIOD    7   TIME STEP   10

 INTERPOLATION FOR HEAD OBS# 3766, ID 1405-7-308   CHANGED BECAUSE AT LEAST ONE
 NEIGHBORING CELL REQUIRED FOR INTERPOLATION IS DRY OR INACTIVE (OBS2BAS7SE)
 
 SOLVING FOR HEAD 
                                                   Max.-Head-Change                        Max.-Flux-Residual
  Residual-Control   Outer-Iter.   Inner-Iter.     Column Row Layer    Max.-Head-Change    Column Row Layer    Max.-Flux-Residual            L2-New               L2-Old           Solver-Max-Delh
          0                 1          10            71   47     1       0.6582355553E+00      71   47    1       0.2516677451E+05      0.1504888865E+06      0.6195481573E+02      0.6582355553E+00
          0                 2           9            43   23     2      -0.1139722349E+00      71   47    1      -0.2520976782E+04      0.1505277792E+05      0.1504888865E+06     -0.1139722349E+00
          0                 3           4            43   23     2       0.7799029581E-02      43   23    2       0.9710186735E+01      0.1072049021E+02      0.1505277792E+05      0.7799029581E-02

    ------------------------------------------------
       NWT REQUIRED            3 OUTER ITERATIONS 
       AND A TOTAL OF         23 INNER ITERATIONS.
    ------------------------------------------------

 NO OUTPUT CONTROL FOR STRESS PERIOD    7   TIME STEP   11

 INTERPOLATION FOR HEAD OBS#  879, ID 2758-7-344   CHANGED BECAUSE AT LEAST ONE
 NEIGHBORING CELL REQUIRED FOR INTERPOLATION IS DRY OR INACTIVE (OBS2BAS7SE)

 INTERPOLATION FOR HEAD OBS# 6989, ID 683-7-360    CHANGED BECAUSE AT LEAST ONE
 NEIGHBORING CELL REQUIRED FOR INTERPOLATION IS DRY OR INACTIVE (OBS2BAS7SE)
 
 SOLVING FOR HEAD 
                                                   Max.-Head-Change                        Max.-Flux-Residual
  Residual-Control   Outer-Iter.   Inner-Iter.     Column Row Layer    Max.-Head-Change    Column Row Layer    Max.-Flux-Residual            L2-New               L2-Old           Solver-Max-Delh
          0                 1          10            71   47     1       0.6103526955E+00      71   47    1       0.2332752507E+05      0.1464139281E+06      0.1072049021E+02      0.6103526955E+00
          0                 2           9            71   47     1      -0.5555374346E-01      71   47    1      -0.2336539304E+04      0.1464623198E+05      0.1464139281E+06     -0.5555374346E-01
          0                 3           4            80   45     1      -0.1374834024E-03      42   35    1       0.5585415959E+00      0.3494122257E+01      0.1464623198E+05     -0.1374834024E-03

    ------------------------------------------------
       NWT REQUIRED            3 OUTER ITERATIONS 
       AND A TOTAL OF         23 INNER ITERATIONS.
    ------------------------------------------------

 OUTPUT CONTROL FOR STRESS PERIOD    7   TIME STEP   12
    SAVE BUDGET
 UBDSV1 SAVING "         STORAGE" ON UNIT  39 AT TIME STEP 12, STRESS PERIOD   7
 UBDSV2 SAVING "   CONSTANT HEAD" ON UNIT  39 AT TIME STEP 12, STRESS PERIOD   7
 UBDSV1 SAVING "FLOW RIGHT FACE " ON UNIT  39 AT TIME STEP 12, STRESS PERIOD   7
 UBDSV1 SAVING "FLOW FRONT FACE " ON UNIT  39 AT TIME STEP 12, STRESS PERIOD   7
 UBDSV1 SAVING "FLOW LOWER FACE " ON UNIT  39 AT TIME STEP 12, STRESS PERIOD   7
 UBDSV4 SAVING "           WELLS" ON UNIT  39 AT TIME STEP 12, STRESS PERIOD   7
 UBDSV3 SAVING "              ET" ON UNIT  39 AT TIME STEP 12, STRESS PERIOD   7
 UBDSV3 SAVING "        RECHARGE" ON UNIT  39 AT TIME STEP 12, STRESS PERIOD   7
1
  VOLUMETRIC BUDGET FOR ENTIRE MODEL AT END OF TIME STEP   12, STRESS PERIOD   7
  ------------------------------------------------------------------------------

     CUMULATIVE VOLUMES      L**3       RATES FOR THIS TIME STEP      L**3/T
     ------------------                 ------------------------

           IN:                                      IN:
           ---                                      ---
             STORAGE     = 11550905344.0000               STORAGE     =     5147067.5000
       CONSTANT HEAD     =  3044108800.0000         CONSTANT HEAD     =     1144421.3750
               WELLS     =  3133969664.0000                 WELLS     =     1225642.0000
                  ET     =           0.0000                    ET     =           0.0000
            RECHARGE     = 30530394112.0000              RECHARGE     =    14674819.0000

                TOTAL IN = 48259379200.0000                  TOTAL IN =    22191950.0000

          OUT:                                     OUT:
          ----                                     ----
             STORAGE     =  2565633792.0000               STORAGE     =      740786.6875
       CONSTANT HEAD     =  8238946304.0000         CONSTANT HEAD     =     3315222.7500
               WELLS     = 33699096576.0000                 WELLS     =    16502659.0000
                  ET     =  3755733760.0000                    ET     =     1633290.6250
            RECHARGE     =           0.0000              RECHARGE     =           0.0000

               TOTAL OUT = 48259411968.0000                 TOTAL OUT =    22191958.0000

                IN - OUT =      -32768.0000                  IN - OUT =          -8.0000

     PERCENT DISCREPANCY =          -0.00         PERCENT DISCREPANCY =          -0.00






         TIME SUMMARY AT END OF TIME STEP   12 IN STRESS PERIOD    7
                    SECONDS     MINUTES      HOURS       DAYS        YEARS
                    -----------------------------------------------------------
   TIME STEP LENGTH 2.62800E+06  43800.      730.00      30.417     8.32763E-02
 STRESS PERIOD TIME 3.15360E+07 5.25600E+05  8760.0      365.00     0.99932    
         TOTAL TIME 2.20925E+08 3.68208E+06  61368.      2557.0      7.0007    
1
1
                            STRESS PERIOD NO.    8, LENGTH =   365.0000    
                            -----------------------------------------------

                              NUMBER OF TIME STEPS =    12

                               MULTIPLIER FOR DELT =     1.000

                            INITIAL TIME STEP SIZE =   30.41667    

    891 WELLS

 REUSING SURF FROM LAST STRESS PERIOD

 REUSING EVTR FROM LAST STRESS PERIOD

 REUSING EXDP FROM LAST STRESS PERIOD



                           RECHARGE
 READING ON UNIT   16 WITH FORMAT: (15F5.0)            


     63 TIME-VARIANT SPECIFIED-HEAD CELLS
 
 SOLVING FOR HEAD 
                                                   Max.-Head-Change                        Max.-Flux-Residual
  Residual-Control   Outer-Iter.   Inner-Iter.     Column Row Layer    Max.-Head-Change    Column Row Layer    Max.-Flux-Residual            L2-New               L2-Old           Solver-Max-Delh
          0                 1          11            80   47     3      -0.1853701491E+02      24   22    2      -0.3873100144E+06      0.9210284566E+06      0.3494122257E+01     -0.1853701491E+02
          0                 2          10            80   47     3       0.1687605936E+01      24   22    2       0.3873100204E+05      0.9119427238E+05      0.9210284566E+06      0.1687605936E+01
          0                 3           6            92   77     2       0.2441552295E-01      60  106    1       0.1132646534E+03      0.2231816798E+03      0.9119427238E+05      0.2441552295E-01
          0                 4           4            92   77     2       0.1299451609E-02      63   85    2       0.7768792307E+01      0.8301711072E+01      0.2231816798E+03      0.1299451609E-02

    ------------------------------------------------
       NWT REQUIRED            4 OUTER ITERATIONS 
       AND A TOTAL OF         31 INNER ITERATIONS.
    ------------------------------------------------

 NO OUTPUT CONTROL FOR STRESS PERIOD    8   TIME STEP    1
 
 SOLVING FOR HEAD 
                                                   Max.-Head-Change                        Max.-Flux-Residual
  Residual-Control   Outer-Iter.   Inner-Iter.     Column Row Layer    Max.-Head-Change    Column Row Layer    Max.-Flux-Residual            L2-New               L2-Old           Solver-Max-Delh
          0                 1          11            80   47     3      -0.5245886655E+01      57   44    1      -0.1050912512E+06      0.5024987442E+06      0.8301711072E+01     -0.5245886655E+01
          0                 2          10            80   47     3       0.4554058319E+00      57   44    1       0.1021302272E+05      0.4998772987E+05      0.5024987442E+06      0.4554058319E+00
          0                 3           4            25    9     1       0.1569377414E-02      25    9    1       0.2049321791E+02      0.2752324361E+02      0.4998772987E+05      0.1569377414E-02

    ------------------------------------------------
       NWT REQUIRED            3 OUTER ITERATIONS 
       AND A TOTAL OF         25 INNER ITERATIONS.
    ------------------------------------------------

 NO OUTPUT CONTROL FOR STRESS PERIOD    8   TIME STEP    2
 
 SOLVING FOR HEAD 
                                                   Max.-Head-Change                        Max.-Flux-Residual
  Residual-Control   Outer-Iter.   Inner-Iter.     Column Row Layer    Max.-Head-Change    Column Row Layer    Max.-Flux-Residual            L2-New               L2-Old           Solver-Max-Delh
          0                 1          11            81   46     1      -0.2639466366E+01      81   46    1      -0.8489957753E+05      0.3892913459E+06      0.2752324361E+02     -0.2639466366E+01
          0                 2          10            81   46     1       0.2396991575E+00      81   46    1       0.8478925611E+04      0.3893478812E+05      0.3892913459E+06      0.2396991575E+00
          0                 3           4            86   50     1       0.1341345655E-02      86   50    1       0.6578552893E+02      0.6691985684E+02      0.3893478812E+05      0.1341345655E-02

    ------------------------------------------------
       NWT REQUIRED            3 OUTER ITERATIONS 
       AND A TOTAL OF         25 INNER ITERATIONS.
    ------------------------------------------------

 NO OUTPUT CONTROL FOR STRESS PERIOD    8   TIME STEP    3
 
 SOLVING FOR HEAD 
                                                   Max.-Head-Change                        Max.-Flux-Residual
  Residual-Control   Outer-Iter.   Inner-Iter.     Column Row Layer    Max.-Head-Change    Column Row Layer    Max.-Flux-Residual            L2-New               L2-Old           Solver-Max-Delh
          0                 1          11            81   46     1      -0.2562606282E+01      81   46    1      -0.8252623943E+05      0.3414059497E+06      0.6691985684E+02     -0.2562606282E+01
          0                 2           9            81   46     1       0.2327205903E+00      81   46    1       0.8241890415E+04      0.3407851200E+05      0.3414059497E+06      0.2327205903E+00
          0                 3           5            92   77     2       0.3063933704E-03      60   62    1      -0.3263593107E+02      0.3772961044E+02      0.3407851200E+05      0.3063933704E-03

    ------------------------------------------------
       NWT REQUIRED            3 OUTER ITERATIONS 
       AND A TOTAL OF         25 INNER ITERATIONS.
    ------------------------------------------------

 NO OUTPUT CONTROL FOR STRESS PERIOD    8   TIME STEP    4
 
 SOLVING FOR HEAD 
                                                   Max.-Head-Change                        Max.-Flux-Residual
  Residual-Control   Outer-Iter.   Inner-Iter.     Column Row Layer    Max.-Head-Change    Column Row Layer    Max.-Flux-Residual            L2-New               L2-Old           Solver-Max-Delh
          0                 1          11            81   46     1      -0.2486297735E+01      81   46    1      -0.8012181732E+05      0.3141291675E+06      0.3772961044E+02     -0.2486297735E+01
          0                 2           9            81   46     1       0.3523211610E+00      81   46    1       0.1363380137E+05      0.3319755410E+05      0.3141291675E+06      0.3523211610E+00
          0                 3           6            18   22     2       0.2234532834E-02      18   22    2       0.1200575137E+03      0.1201809454E+03      0.3319755410E+05      0.2234532834E-02

    ------------------------------------------------
       NWT REQUIRED            3 OUTER ITERATIONS 
       AND A TOTAL OF         26 INNER ITERATIONS.
    ------------------------------------------------

 NO OUTPUT CONTROL FOR STRESS PERIOD    8   TIME STEP    5
 
 SOLVING FOR HEAD 
                                                   Max.-Head-Change                        Max.-Flux-Residual
  Residual-Control   Outer-Iter.   Inner-Iter.     Column Row Layer    Max.-Head-Change    Column Row Layer    Max.-Flux-Residual            L2-New               L2-Old           Solver-Max-Delh
          0                 1          11            81   46     1      -0.2094080961E+01      81   46    1      -0.7338383220E+05      0.2950294172E+06      0.1201809454E+03     -0.2094080961E+01
          0                 2           9            81   46     1       0.1902207395E+00      81   46    1       0.7331259242E+04      0.2966008330E+05      0.2950294172E+06      0.1902207395E+00
          0                 3           4            80   45     1       0.3226564058E-03      85   48    2      -0.2442153559E+01      0.6337152094E+01      0.2966008330E+05      0.3226564058E-03

    ------------------------------------------------
       NWT REQUIRED            3 OUTER ITERATIONS 
       AND A TOTAL OF         24 INNER ITERATIONS.
    ------------------------------------------------

 NO OUTPUT CONTROL FOR STRESS PERIOD    8   TIME STEP    6
 
 SOLVING FOR HEAD 
                                                   Max.-Head-Change                        Max.-Flux-Residual
  Residual-Control   Outer-Iter.   Inner-Iter.     Column Row Layer    Max.-Head-Change    Column Row Layer    Max.-Flux-Residual            L2-New               L2-Old           Solver-Max-Delh
          0                 1          11            81   46     1      -0.1868944065E+01      81   46    1      -0.6546956230E+05      0.2806930577E+06      0.6337152094E+01     -0.1868944065E+01
          0                 2           9            81   46     1       0.1697851947E+00      81   46    1       0.6541332377E+04      0.2803565393E+05      0.2806930577E+06      0.1697851947E+00
          0                 3           4            80   45     1       0.3336681892E-03      42   35    1       0.1115533829E+01      0.5687480449E+01      0.2803565393E+05      0.3336681892E-03

    ------------------------------------------------
       NWT REQUIRED            3 OUTER ITERATIONS 
       AND A TOTAL OF         24 INNER ITERATIONS.
    ------------------------------------------------

 NO OUTPUT CONTROL FOR STRESS PERIOD    8   TIME STEP    7

 INTERPOLATION FOR HEAD OBS#  633, ID 3016-8-222   CHANGED BECAUSE AT LEAST ONE
 NEIGHBORING CELL REQUIRED FOR INTERPOLATION IS DRY OR INACTIVE (OBS2BAS7SE)
 
 SOLVING FOR HEAD 
                                                   Max.-Head-Change                        Max.-Flux-Residual
  Residual-Control   Outer-Iter.   Inner-Iter.     Column Row Layer    Max.-Head-Change    Column Row Layer    Max.-Flux-Residual            L2-New               L2-Old           Solver-Max-Delh
          0                 1          11            81   46     1      -0.1668663901E+01      81   46    1      -0.5842966795E+05      0.2698399586E+06      0.5687480449E+01     -0.1668663901E+01
          0                 2           9            58   96     2      -0.2729616299E+00      81   46    1       0.5811069521E+04      0.2705001132E+05      0.2698399586E+06     -0.2729616299E+00
          0                 3           5            58   96     2       0.2390133443E-01      58   96    2       0.2064334406E+03      0.2123590634E+03      0.2705001132E+05      0.2390133443E-01
          0                 4           2            58   96     2       0.8030847053E-04      58   96    2       0.6616346501E+00      0.6890354737E+00      0.2123590634E+03      0.8030847053E-04

    ------------------------------------------------
       NWT REQUIRED            4 OUTER ITERATIONS 
       AND A TOTAL OF         27 INNER ITERATIONS.
    ------------------------------------------------

 NO OUTPUT CONTROL FOR STRESS PERIOD    8   TIME STEP    8
 
 SOLVING FOR HEAD 
                                                   Max.-Head-Change                        Max.-Flux-Residual
  Residual-Control   Outer-Iter.   Inner-Iter.     Column Row Layer    Max.-Head-Change    Column Row Layer    Max.-Flux-Residual            L2-New               L2-Old           Solver-Max-Delh
          0                 1          11            81   46     1      -0.1492217068E+01      81   46    1      -0.5218724593E+05      0.2614007583E+06      0.6890354737E+00     -0.1492217068E+01
          0                 2           9            81   46     1       0.1356038424E+00      81   46    1       0.5216282492E+04      0.2636488477E+05      0.2614007583E+06      0.1356038424E+00
          0                 3           5            15   34     2       0.6434278948E-02      15   34    2       0.1379348604E+03      0.1772965549E+03      0.2636488477E+05      0.6434278948E-02

    ------------------------------------------------
       NWT REQUIRED            3 OUTER ITERATIONS 
       AND A TOTAL OF         25 INNER ITERATIONS.
    ------------------------------------------------

 NO OUTPUT CONTROL FOR STRESS PERIOD    8   TIME STEP    9
 
 SOLVING FOR HEAD 
                                                   Max.-Head-Change                        Max.-Flux-Residual
  Residual-Control   Outer-Iter.   Inner-Iter.     Column Row Layer    Max.-Head-Change    Column Row Layer    Max.-Flux-Residual            L2-New               L2-Old           Solver-Max-Delh
          0                 1          11            81   46     1      -0.1334400402E+01      81   46    1      -0.4664950282E+05      0.2546768149E+06      0.1772965549E+03     -0.1334400402E+01
          0                 2           9            81   46     1       0.1212669778E+00      81   46    1       0.4662988324E+04      0.2547589364E+05      0.2546768149E+06      0.1212669778E+00
          0                 3           5            59   86     1      -0.2768683852E-01      59   86    1      -0.1464027524E+04      0.1464070910E+04      0.2547589364E+05     -0.2768683852E-01
          0                 4           3            59   86     1      -0.2493007442E-02      59   86    1      -0.1317973729E+03      0.1318004199E+03      0.1464070910E+04     -0.2493007442E-02

    ------------------------------------------------
       NWT REQUIRED            4 OUTER ITERATIONS 
       AND A TOTAL OF         28 INNER ITERATIONS.
    ------------------------------------------------

 NO OUTPUT CONTROL FOR STRESS PERIOD    8   TIME STEP   10
 
 SOLVING FOR HEAD 
                                                   Max.-Head-Change                        Max.-Flux-Residual
  Residual-Control   Outer-Iter.   Inner-Iter.     Column Row Layer    Max.-Head-Change    Column Row Layer    Max.-Flux-Residual            L2-New               L2-Old           Solver-Max-Delh
          0                 1          11            81   46     1      -0.1193763435E+01      81   46    1      -0.4171536017E+05      0.2491623749E+06      0.1318004199E+03     -0.1193763435E+01
          0                 2           9            81   46     1       0.1084898723E+00      81   46    1       0.4169957994E+04      0.2490878935E+05      0.2491623749E+06      0.1084898723E+00
          0                 3           4            59   86     1       0.5094389501E-02      59   86    1       0.9871886197E+02      0.9970365446E+02      0.2490878935E+05      0.5094389501E-02

    ------------------------------------------------
       NWT REQUIRED            3 OUTER ITERATIONS 
       AND A TOTAL OF         24 INNER ITERATIONS.
    ------------------------------------------------

 NO OUTPUT CONTROL FOR STRESS PERIOD    8   TIME STEP   11
 
 SOLVING FOR HEAD 
                                                   Max.-Head-Change                        Max.-Flux-Residual
  Residual-Control   Outer-Iter.   Inner-Iter.     Column Row Layer    Max.-Head-Change    Column Row Layer    Max.-Flux-Residual            L2-New               L2-Old           Solver-Max-Delh
          0                 1          11            81   46     1      -0.1068417992E+01      81   46    1      -0.3731844020E+05      0.2447123302E+06      0.9970365446E+02     -0.1068417992E+01
          0                 2           9            81   46     1       0.9710129769E-01      81   46    1       0.3730573393E+04      0.2446356695E+05      0.2447123302E+06      0.9710129769E-01
          0                 3           4            16   76     1       0.2847907972E-02      16   76    1       0.4478230966E+02      0.4777988398E+02      0.2446356695E+05      0.2847907972E-02

    ------------------------------------------------
       NWT REQUIRED            3 OUTER ITERATIONS 
       AND A TOTAL OF         24 INNER ITERATIONS.
    ------------------------------------------------

 OUTPUT CONTROL FOR STRESS PERIOD    8   TIME STEP   12
    SAVE BUDGET
 UBDSV1 SAVING "         STORAGE" ON UNIT  39 AT TIME STEP 12, STRESS PERIOD   8
 UBDSV2 SAVING "   CONSTANT HEAD" ON UNIT  39 AT TIME STEP 12, STRESS PERIOD   8
 UBDSV1 SAVING "FLOW RIGHT FACE " ON UNIT  39 AT TIME STEP 12, STRESS PERIOD   8
 UBDSV1 SAVING "FLOW FRONT FACE " ON UNIT  39 AT TIME STEP 12, STRESS PERIOD   8
 UBDSV1 SAVING "FLOW LOWER FACE " ON UNIT  39 AT TIME STEP 12, STRESS PERIOD   8
 UBDSV4 SAVING "           WELLS" ON UNIT  39 AT TIME STEP 12, STRESS PERIOD   8
 UBDSV3 SAVING "              ET" ON UNIT  39 AT TIME STEP 12, STRESS PERIOD   8
 UBDSV3 SAVING "        RECHARGE" ON UNIT  39 AT TIME STEP 12, STRESS PERIOD   8
1
  VOLUMETRIC BUDGET FOR ENTIRE MODEL AT END OF TIME STEP   12, STRESS PERIOD   8
  ------------------------------------------------------------------------------

     CUMULATIVE VOLUMES      L**3       RATES FOR THIS TIME STEP      L**3/T
     ------------------                 ------------------------

           IN:                                      IN:
           ---                                      ---
             STORAGE     = 15496182784.0000               STORAGE     =    10298476.0000
       CONSTANT HEAD     =  3472927744.0000         CONSTANT HEAD     =     1186547.8750
               WELLS     =  3581329664.0000                 WELLS     =     1225642.0000
                  ET     =           0.0000                    ET     =           0.0000
            RECHARGE     = 34021365760.0000              RECHARGE     =     9564303.0000

                TOTAL IN = 56571805696.0000                  TOTAL IN =    22274968.0000

          OUT:                                     OUT:
          ----                                     ----
             STORAGE     =  2654422784.0000               STORAGE     =       27849.8867
       CONSTANT HEAD     =  9458668544.0000         CONSTANT HEAD     =     3349580.2500
               WELLS     = 40342089728.0000                 WELLS     =    18199996.0000
                  ET     =  4116652800.0000                    ET     =      697546.3750
            RECHARGE     =           0.0000              RECHARGE     =           0.0000

               TOTAL OUT = 56571834368.0000                 TOTAL OUT =    22274972.0000

                IN - OUT =      -28672.0000                  IN - OUT =          -4.0000

     PERCENT DISCREPANCY =          -0.00         PERCENT DISCREPANCY =          -0.00






         TIME SUMMARY AT END OF TIME STEP   12 IN STRESS PERIOD    8
                    SECONDS     MINUTES      HOURS       DAYS        YEARS
                    -----------------------------------------------------------
   TIME STEP LENGTH 2.62800E+06  43800.      730.00      30.417     8.32763E-02
 STRESS PERIOD TIME 3.15360E+07 5.25600E+05  8760.0      365.00     0.99932    
         TOTAL TIME 2.52461E+08 4.20768E+06  70128.      2922.0      8.0000    
1
1
                            STRESS PERIOD NO.    9, LENGTH =   366.0000    
                            -----------------------------------------------

                              NUMBER OF TIME STEPS =    12

                               MULTIPLIER FOR DELT =     1.000

                            INITIAL TIME STEP SIZE =   30.50000    

    948 WELLS

 REUSING SURF FROM LAST STRESS PERIOD

 REUSING EVTR FROM LAST STRESS PERIOD

 REUSING EXDP FROM LAST STRESS PERIOD



                           RECHARGE
 READING ON UNIT   16 WITH FORMAT: (15F5.0)            


     63 TIME-VARIANT SPECIFIED-HEAD CELLS
 
 SOLVING FOR HEAD 
                                                   Max.-Head-Change                        Max.-Flux-Residual
  Residual-Control   Outer-Iter.   Inner-Iter.     Column Row Layer    Max.-Head-Change    Column Row Layer    Max.-Flux-Residual            L2-New               L2-Old           Solver-Max-Delh
          0                 1          11            92   77     2      -0.9747749279E+01      23   15    2      -0.2862737586E+06      0.5906894450E+06      0.4777988398E+02     -0.9747749279E+01
          0                 2          10            80   47     3      -0.9199452580E+00      23   15    2       0.2862737631E+05      0.5944794064E+05      0.5906894450E+06     -0.9199452580E+00
          0                 3           5            80   48     3      -0.1746748985E-01      40   29    1       0.2602437977E+03      0.2860954030E+03      0.5944794064E+05     -0.1746748985E-01
          0                 4           2            92   77     2       0.9245296531E-03      92   77    2       0.4657717755E+00      0.8726064337E+00      0.2860954030E+03      0.9245296531E-03

    ------------------------------------------------
       NWT REQUIRED            4 OUTER ITERATIONS 
       AND A TOTAL OF         28 INNER ITERATIONS.
    ------------------------------------------------

 NO OUTPUT CONTROL FOR STRESS PERIOD    9   TIME STEP    1
 
 SOLVING FOR HEAD 
                                                   Max.-Head-Change                        Max.-Flux-Residual
  Residual-Control   Outer-Iter.   Inner-Iter.     Column Row Layer    Max.-Head-Change    Column Row Layer    Max.-Flux-Residual            L2-New               L2-Old           Solver-Max-Delh
          0                 1          11            80   47     3       0.1905067956E+01      57   44    1       0.6897760390E+05      0.2989364863E+06      0.8726064337E+00      0.1905067956E+01
          0                 2           9            80   47     3      -0.1731762007E+00      57   44    1      -0.7001767314E+04      0.2987408400E+05      0.2989364863E+06     -0.1731762007E+00
          0                 3           4            92   77     2       0.6044807927E-03      21   32    1       0.1368714750E+01      0.6165078652E+01      0.2987408400E+05      0.6044807927E-03

    ------------------------------------------------
       NWT REQUIRED            3 OUTER ITERATIONS 
       AND A TOTAL OF         24 INNER ITERATIONS.
    ------------------------------------------------

 NO OUTPUT CONTROL FOR STRESS PERIOD    9   TIME STEP    2
 
 SOLVING FOR HEAD 
                                                   Max.-Head-Change                        Max.-Flux-Residual
  Residual-Control   Outer-Iter.   Inner-Iter.     Column Row Layer    Max.-Head-Change    Column Row Layer    Max.-Flux-Residual            L2-New               L2-Old           Solver-Max-Delh
          0                 1          11            81   45     1       0.7731709005E+00      26   19    1      -0.3546397192E+05      0.2544955014E+06      0.6165078652E+01      0.7731709005E+00
          0                 2           9            81   45     1      -0.7030898992E-01      26   19    1       0.3523844787E+04      0.2545179136E+05      0.2544955014E+06     -0.7030898992E-01
          0                 3           4            92   77     2       0.5670318912E-03      28   18    2      -0.1312797874E+01      0.6170420841E+01      0.2545179136E+05      0.5670318912E-03

    ------------------------------------------------
       NWT REQUIRED            3 OUTER ITERATIONS 
       AND A TOTAL OF         24 INNER ITERATIONS.
    ------------------------------------------------

 NO OUTPUT CONTROL FOR STRESS PERIOD    9   TIME STEP    3
 
 SOLVING FOR HEAD 
                                                   Max.-Head-Change                        Max.-Flux-Residual
  Residual-Control   Outer-Iter.   Inner-Iter.     Column Row Layer    Max.-Head-Change    Column Row Layer    Max.-Flux-Residual            L2-New               L2-Old           Solver-Max-Delh
          0                 1          11            81   45     1       0.6721278786E+00      24   18    1      -0.2563216207E+05      0.2375118354E+06      0.6170420841E+01      0.6721278786E+00
          0                 2           9            81   45     1      -0.6111854143E-01      24   18    1       0.2553887986E+04      0.2374269576E+05      0.2375118354E+06     -0.6111854143E-01
          0                 3           4            92   77     2       0.5358720816E-03      40   29    1       0.9331645966E+00      0.5573014924E+01      0.2374269576E+05      0.5358720816E-03

    ------------------------------------------------
       NWT REQUIRED            3 OUTER ITERATIONS 
       AND A TOTAL OF         24 INNER ITERATIONS.
    ------------------------------------------------

 NO OUTPUT CONTROL FOR STRESS PERIOD    9   TIME STEP    4
 
 SOLVING FOR HEAD 
                                                   Max.-Head-Change                        Max.-Flux-Residual
  Residual-Control   Outer-Iter.   Inner-Iter.     Column Row Layer    Max.-Head-Change    Column Row Layer    Max.-Flux-Residual            L2-New               L2-Old           Solver-Max-Delh
          0                 1          11            81   45     1       0.5840724714E+00      24   18    1      -0.2094356182E+05      0.2287601357E+06      0.5573014924E+01      0.5840724714E+00
          0                 2           9            81   45     1      -0.5310971367E-01      24   18    1       0.2089872644E+04      0.2287752970E+05      0.2287601357E+06     -0.5310971367E-01
          0                 3           4            92   77     2       0.5094374184E-03      84   47    2      -0.7095880710E+01      0.1080001837E+02      0.2287752970E+05      0.5094374184E-03

    ------------------------------------------------
       NWT REQUIRED            3 OUTER ITERATIONS 
       AND A TOTAL OF         24 INNER ITERATIONS.
    ------------------------------------------------

 NO OUTPUT CONTROL FOR STRESS PERIOD    9   TIME STEP    5
 
 SOLVING FOR HEAD 
                                                   Max.-Head-Change                        Max.-Flux-Residual
  Residual-Control   Outer-Iter.   Inner-Iter.     Column Row Layer    Max.-Head-Change    Column Row Layer    Max.-Flux-Residual            L2-New               L2-Old           Solver-Max-Delh
          0                 1          11            81   45     1       0.5074351115E+00      24   18    1      -0.1823248074E+05      0.2232782350E+06      0.1080001837E+02      0.5074351115E+00
          0                 2           9            81   45     1      -0.4614014459E-01      24   18    1       0.1820642275E+04      0.2232088132E+05      0.2232782350E+06     -0.4614014459E-01
          0                 3           4            92   77     2       0.4865645256E-03      42   36    1       0.8409848213E+00      0.5378778175E+01      0.2232088132E+05      0.4865645256E-03

    ------------------------------------------------
       NWT REQUIRED            3 OUTER ITERATIONS 
       AND A TOTAL OF         24 INNER ITERATIONS.
    ------------------------------------------------

 NO OUTPUT CONTROL FOR STRESS PERIOD    9   TIME STEP    6
 
 SOLVING FOR HEAD 
                                                   Max.-Head-Change                        Max.-Flux-Residual
  Residual-Control   Outer-Iter.   Inner-Iter.     Column Row Layer    Max.-Head-Change    Column Row Layer    Max.-Flux-Residual            L2-New               L2-Old           Solver-Max-Delh
          0                 1          11            81   45     1       0.4407684326E+00      25   18    1      -0.1653945368E+05      0.2194359778E+06      0.5378778175E+01      0.4407684326E+00
          0                 2           9            81   45     1      -0.4007747989E-01      25   18    1       0.1652898638E+04      0.2193824066E+05      0.2194359778E+06     -0.4007747989E-01
          0                 3           4            66   26     2       0.8472266140E-03      66   26    2       0.1974831166E+02      0.2046045804E+02      0.2193824066E+05      0.8472266140E-03

    ------------------------------------------------
       NWT REQUIRED            3 OUTER ITERATIONS 
       AND A TOTAL OF         24 INNER ITERATIONS.
    ------------------------------------------------

 NO OUTPUT CONTROL FOR STRESS PERIOD    9   TIME STEP    7
 
 SOLVING FOR HEAD 
                                                   Max.-Head-Change                        Max.-Flux-Residual
  Residual-Control   Outer-Iter.   Inner-Iter.     Column Row Layer    Max.-Head-Change    Column Row Layer    Max.-Flux-Residual            L2-New               L2-Old           Solver-Max-Delh
          0                 1          11            81   45     1       0.3827870320E+00      12   10    1      -0.1602556314E+05      0.2165734917E+06      0.2046045804E+02      0.3827870320E+00
          0                 2           9            81   45     1      -0.3480488140E-01      12   10    1       0.1584036959E+04      0.2166040584E+05      0.2165734917E+06     -0.3480488140E-01
          0                 3           4            92   77     2       0.4485804138E-03      40   29    1       0.7869706452E+00      0.5316426761E+01      0.2166040584E+05      0.4485804138E-03

    ------------------------------------------------
       NWT REQUIRED            3 OUTER ITERATIONS 
       AND A TOTAL OF         24 INNER ITERATIONS.
    ------------------------------------------------

 NO OUTPUT CONTROL FOR STRESS PERIOD    9   TIME STEP    8
 
 SOLVING FOR HEAD 
                                                   Max.-Head-Change                        Max.-Flux-Residual
  Residual-Control   Outer-Iter.   Inner-Iter.     Column Row Layer    Max.-Head-Change    Column Row Layer    Max.-Flux-Residual            L2-New               L2-Old           Solver-Max-Delh
          0                 1          11            25   18     1      -0.3586470000E+00      12   10    1      -0.1607819703E+05      0.2143472552E+06      0.5316426761E+01     -0.3586470000E+00
          0                 2           9            25   18     1       0.3259311202E-01      12   10    1       0.1589135809E+04      0.2143011748E+05      0.2143472552E+06      0.3259311202E-01
          0                 3           4            92   77     2       0.4323958806E-03      40   29    1       0.7715708017E+00      0.5296352592E+01      0.2143011748E+05      0.4323958806E-03

    ------------------------------------------------
       NWT REQUIRED            3 OUTER ITERATIONS 
       AND A TOTAL OF         24 INNER ITERATIONS.
    ------------------------------------------------

 NO OUTPUT CONTROL FOR STRESS PERIOD    9   TIME STEP    9
 
 SOLVING FOR HEAD 
                                                   Max.-Head-Change                        Max.-Flux-Residual
  Residual-Control   Outer-Iter.   Inner-Iter.     Column Row Layer    Max.-Head-Change    Column Row Layer    Max.-Flux-Residual            L2-New               L2-Old           Solver-Max-Delh
          0                 1          11            12    6     3      -0.3411022455E+00      12   10    1      -0.1612383760E+05      0.2125575788E+06      0.5296352592E+01     -0.3411022455E+00
          0                 2           9            12    6     3       0.3098548600E-01      12   10    1       0.1593553241E+04      0.2125083684E+05      0.2125575788E+06      0.3098548600E-01
          0                 3           4            92   77     2       0.4176156544E-03      40   29    1       0.7598488331E+00      0.5287586263E+01      0.2125083684E+05      0.4176156544E-03

    ------------------------------------------------
       NWT REQUIRED            3 OUTER ITERATIONS 
       AND A TOTAL OF         24 INNER ITERATIONS.
    ------------------------------------------------

 NO OUTPUT CONTROL FOR STRESS PERIOD    9   TIME STEP   10
 
 SOLVING FOR HEAD 
                                                   Max.-Head-Change                        Max.-Flux-Residual
  Residual-Control   Outer-Iter.   Inner-Iter.     Column Row Layer    Max.-Head-Change    Column Row Layer    Max.-Flux-Residual            L2-New               L2-Old           Solver-Max-Delh
          0                 1          11            12    6     3      -0.3420624764E+00      12   10    1      -0.1616146049E+05      0.2110813750E+06      0.5287586263E+01     -0.3420624764E+00
          0                 2           9            55   38     2       0.9038213217E-01      55   38    2       0.6188859999E+04      0.2199178525E+05      0.2110813750E+06      0.9038213217E-01
          0                 3           4            92   77     2       0.4040007925E-03      56   38    1       0.9181841463E+00      0.5370665281E+01      0.2199178525E+05      0.4040007925E-03

    ------------------------------------------------
       NWT REQUIRED            3 OUTER ITERATIONS 
       AND A TOTAL OF         24 INNER ITERATIONS.
    ------------------------------------------------

 NO OUTPUT CONTROL FOR STRESS PERIOD    9   TIME STEP   11
 
 SOLVING FOR HEAD 
                                                   Max.-Head-Change                        Max.-Flux-Residual
  Residual-Control   Outer-Iter.   Inner-Iter.     Column Row Layer    Max.-Head-Change    Column Row Layer    Max.-Flux-Residual            L2-New               L2-Old           Solver-Max-Delh
          0                 1          10            12    6     3      -0.3429696919E+00      12   10    1      -0.1619798557E+05      0.2097708024E+06      0.5370665281E+01     -0.3429696919E+00
          0                 2           9            12    6     3       0.3115484288E-01      12   10    1       0.1600712896E+04      0.2102506694E+05      0.2097708024E+06      0.3115484288E-01
          0                 3           4            92   77     2       0.3913589789E-03      40   29    1       0.7434514165E+00      0.5267326817E+01      0.2102506694E+05      0.3913589789E-03

    ------------------------------------------------
       NWT REQUIRED            3 OUTER ITERATIONS 
       AND A TOTAL OF         23 INNER ITERATIONS.
    ------------------------------------------------

 OUTPUT CONTROL FOR STRESS PERIOD    9   TIME STEP   12
    SAVE BUDGET
 UBDSV1 SAVING "         STORAGE" ON UNIT  39 AT TIME STEP 12, STRESS PERIOD   9
 UBDSV2 SAVING "   CONSTANT HEAD" ON UNIT  39 AT TIME STEP 12, STRESS PERIOD   9
 UBDSV1 SAVING "FLOW RIGHT FACE " ON UNIT  39 AT TIME STEP 12, STRESS PERIOD   9
 UBDSV1 SAVING "FLOW FRONT FACE " ON UNIT  39 AT TIME STEP 12, STRESS PERIOD   9
 UBDSV1 SAVING "FLOW LOWER FACE " ON UNIT  39 AT TIME STEP 12, STRESS PERIOD   9
 UBDSV4 SAVING "           WELLS" ON UNIT  39 AT TIME STEP 12, STRESS PERIOD   9
 UBDSV3 SAVING "              ET" ON UNIT  39 AT TIME STEP 12, STRESS PERIOD   9
 UBDSV3 SAVING "        RECHARGE" ON UNIT  39 AT TIME STEP 12, STRESS PERIOD   9
1
  VOLUMETRIC BUDGET FOR ENTIRE MODEL AT END OF TIME STEP   12, STRESS PERIOD   9
  ------------------------------------------------------------------------------

     CUMULATIVE VOLUMES      L**3       RATES FOR THIS TIME STEP      L**3/T
     ------------------                 ------------------------

           IN:                                      IN:
           ---                                      ---
             STORAGE     = 19025248256.0000               STORAGE     =     9538925.0000
       CONSTANT HEAD     =  3910366976.0000         CONSTANT HEAD     =     1184899.6250
               WELLS     =  4029915392.0000                 WELLS     =     1225642.0000
                  ET     =           0.0000                    ET     =           0.0000
            RECHARGE     = 38320545792.0000              RECHARGE     =    11746443.0000

                TOTAL IN = 65286078464.0000                  TOTAL IN =    23695910.0000

          OUT:                                     OUT:
          ----                                     ----
             STORAGE     =  2737049600.0000               STORAGE     =       55995.6250
       CONSTANT HEAD     = 10714006528.0000         CONSTANT HEAD     =     3472821.0000
               WELLS     = 47434330112.0000                 WELLS     =    19377648.0000
                  ET     =  4400761856.0000                    ET     =      789452.1250
            RECHARGE     =           0.0000              RECHARGE     =           0.0000

               TOTAL OUT = 65286148096.0000                 TOTAL OUT =    23695916.0000

                IN - OUT =      -69632.0000                  IN - OUT =          -6.0000

     PERCENT DISCREPANCY =          -0.00         PERCENT DISCREPANCY =          -0.00






         TIME SUMMARY AT END OF TIME STEP   12 IN STRESS PERIOD    9
                    SECONDS     MINUTES      HOURS       DAYS        YEARS
                    -----------------------------------------------------------
   TIME STEP LENGTH 2.63520E+06  43920.      732.00      30.500     8.35044E-02
 STRESS PERIOD TIME 3.16224E+07 5.27040E+05  8784.0      366.00      1.0021    
         TOTAL TIME 2.84083E+08 4.73472E+06  78912.      3288.0      9.0021    
1
1
                            STRESS PERIOD NO.   10, LENGTH =   365.0000    
                            -----------------------------------------------

                              NUMBER OF TIME STEPS =    12

                               MULTIPLIER FOR DELT =     1.000

                            INITIAL TIME STEP SIZE =   30.41667    

    986 WELLS

 REUSING SURF FROM LAST STRESS PERIOD

 REUSING EVTR FROM LAST STRESS PERIOD

 REUSING EXDP FROM LAST STRESS PERIOD



                           RECHARGE
 READING ON UNIT   16 WITH FORMAT: (15F5.0)            


     63 TIME-VARIANT SPECIFIED-HEAD CELLS
 
 SOLVING FOR HEAD 
                                                   Max.-Head-Change                        Max.-Flux-Residual
  Residual-Control   Outer-Iter.   Inner-Iter.     Column Row Layer    Max.-Head-Change    Column Row Layer    Max.-Flux-Residual            L2-New               L2-Old           Solver-Max-Delh
          0                 1          11            92   77     2       0.1491378173E+02      30   25    2      -0.2244929378E+06      0.5381344508E+06      0.5267326817E+01      0.1491378173E+02
          0                 2          10            92   77     2      -0.5079441058E+00      30   25    2       0.2244929416E+05      0.5324317179E+05      0.5381344508E+06     -0.5079441058E+00
          0                 3           4            92   77     2      -0.2917935788E-01      67   48    1      -0.1038008662E+03      0.1476422245E+03      0.5324317179E+05     -0.2917935788E-01
          0                 4           2            92   77     2      -0.1674102856E-02      67   47    1       0.8225054935E+01      0.8527070489E+01      0.1476422245E+03     -0.1674102856E-02

    ------------------------------------------------
       NWT REQUIRED            4 OUTER ITERATIONS 
       AND A TOTAL OF         27 INNER ITERATIONS.
    ------------------------------------------------

 NO OUTPUT CONTROL FOR STRESS PERIOD   10   TIME STEP    1

 INTERPOLATION FOR HEAD OBS# 3767, ID 1405-10-34   CHANGED BECAUSE AT LEAST ONE
 NEIGHBORING CELL REQUIRED FOR INTERPOLATION IS DRY OR INACTIVE (OBS2BAS7SE)
 
 SOLVING FOR HEAD 
                                                   Max.-Head-Change                        Max.-Flux-Residual
  Residual-Control   Outer-Iter.   Inner-Iter.     Column Row Layer    Max.-Head-Change    Column Row Layer    Max.-Flux-Residual            L2-New               L2-Old           Solver-Max-Delh
          0                 1          11            36   26     1      -0.1671843740E+01      36   26    1      -0.1194525178E+06      0.3465030799E+06      0.8527070489E+01     -0.1671843740E+01
          0                 2          10            36   26     1       0.1486921267E+00      36   26    1       0.1152205468E+05      0.3454637782E+05      0.3465030799E+06      0.1486921267E+00
          0                 3           5            25   10     2       0.2390448317E-02      25   10    2       0.8940866884E+02      0.9026521522E+02      0.3454637782E+05      0.2390448317E-02

    ------------------------------------------------
       NWT REQUIRED            3 OUTER ITERATIONS 
       AND A TOTAL OF         26 INNER ITERATIONS.
    ------------------------------------------------

 NO OUTPUT CONTROL FOR STRESS PERIOD   10   TIME STEP    2
 
 SOLVING FOR HEAD 
                                                   Max.-Head-Change                        Max.-Flux-Residual
  Residual-Control   Outer-Iter.   Inner-Iter.     Column Row Layer    Max.-Head-Change    Column Row Layer    Max.-Flux-Residual            L2-New               L2-Old           Solver-Max-Delh
          0                 1          11            81   45     1       0.1132992432E+01      36   26    1      -0.6285670354E+05      0.3017570396E+06      0.9026521522E+02      0.1132992432E+01
          0                 2          10            27   14     1      -0.1103334602E+00      36   26    1       0.6161689503E+04      0.3071539593E+05      0.3017570396E+06     -0.1103334602E+00
          0                 3           5            27   14     1       0.9845638352E-02      47   31    1       0.3570319760E+03      0.4304582275E+03      0.3071539593E+05      0.9845638352E-02

    ------------------------------------------------
       NWT REQUIRED            3 OUTER ITERATIONS 
       AND A TOTAL OF         26 INNER ITERATIONS.
    ------------------------------------------------

 NO OUTPUT CONTROL FOR STRESS PERIOD   10   TIME STEP    3

 INTERPOLATION FOR HEAD OBS# 6299, ID 766-10-104   CHANGED BECAUSE AT LEAST ONE
 NEIGHBORING CELL REQUIRED FOR INTERPOLATION IS DRY OR INACTIVE (OBS2BAS7SE)
 
 SOLVING FOR HEAD 
                                                   Max.-Head-Change                        Max.-Flux-Residual
  Residual-Control   Outer-Iter.   Inner-Iter.     Column Row Layer    Max.-Head-Change    Column Row Layer    Max.-Flux-Residual            L2-New               L2-Old           Solver-Max-Delh
          0                 1          11            81   45     1       0.9912587036E+00      36   26    1      -0.3860356265E+05      0.2818112510E+06      0.4304582275E+03      0.9912587036E+00
          0                 2          10            81   45     1      -0.9015279335E-01      36   26    1       0.3816422510E+04      0.2826034043E+05      0.2818112510E+06     -0.9015279335E-01
          0                 3           4            90   76     2       0.1352036193E-03      27   14    1       0.1034676030E+01      0.5446868729E+01      0.2826034043E+05      0.1352036193E-03

    ------------------------------------------------
       NWT REQUIRED            3 OUTER ITERATIONS 
       AND A TOTAL OF         25 INNER ITERATIONS.
    ------------------------------------------------

 NO OUTPUT CONTROL FOR STRESS PERIOD   10   TIME STEP    4
 
 SOLVING FOR HEAD 
                                                   Max.-Head-Change                        Max.-Flux-Residual
  Residual-Control   Outer-Iter.   Inner-Iter.     Column Row Layer    Max.-Head-Change    Column Row Layer    Max.-Flux-Residual            L2-New               L2-Old           Solver-Max-Delh
          0                 1          11            81   45     1       0.8677536979E+00      70   47    1       0.3188105185E+05      0.2701040433E+06      0.5446868729E+01      0.8677536979E+00
          0                 2          10            25   10     1      -0.1259643386E+00      70   47    1      -0.3193684744E+04      0.2705063143E+05      0.2701040433E+06     -0.1259643386E+00
          0                 3           5            25   10     1       0.1121232805E-01      25   10    1       0.1765755560E+03      0.1859458810E+03      0.2705063143E+05      0.1121232805E-01
          0                 4           2            25   10     1       0.2162589273E-04      25   10    1       0.3112335652E+00      0.3303091128E+00      0.1859458810E+03      0.2162589273E-04

    ------------------------------------------------
       NWT REQUIRED            4 OUTER ITERATIONS 
       AND A TOTAL OF         28 INNER ITERATIONS.
    ------------------------------------------------

 NO OUTPUT CONTROL FOR STRESS PERIOD   10   TIME STEP    5
 
 SOLVING FOR HEAD 
                                                   Max.-Head-Change                        Max.-Flux-Residual
  Residual-Control   Outer-Iter.   Inner-Iter.     Column Row Layer    Max.-Head-Change    Column Row Layer    Max.-Flux-Residual            L2-New               L2-Old           Solver-Max-Delh
          0                 1          11            81   45     1       0.7601103135E+00      70   47    1       0.2815184188E+05      0.2621583994E+06      0.3303091128E+00      0.7601103135E+00
          0                 2          10            81   45     1      -0.6912102252E-01      70   47    1      -0.2819413683E+04      0.2624695174E+05      0.2621583994E+06     -0.6912102252E-01
          0                 3           6            56   51     1       0.5642732685E-02      56   51    1       0.1629374889E+03      0.1959105731E+03      0.2624695174E+05      0.5642732685E-02

    ------------------------------------------------
       NWT REQUIRED            3 OUTER ITERATIONS 
       AND A TOTAL OF         27 INNER ITERATIONS.
    ------------------------------------------------

 NO OUTPUT CONTROL FOR STRESS PERIOD   10   TIME STEP    6
 
 SOLVING FOR HEAD 
                                                   Max.-Head-Change                        Max.-Flux-Residual
  Residual-Control   Outer-Iter.   Inner-Iter.     Column Row Layer    Max.-Head-Change    Column Row Layer    Max.-Flux-Residual            L2-New               L2-Old           Solver-Max-Delh
          0                 1          11            81   45     1       0.6662708621E+00      12    8    1      -0.2705446041E+05      0.2564296327E+06      0.1959105731E+03      0.6662708621E+00
          0                 2          10            16   35     2      -0.9709927176E-01      12    8    1       0.2656093736E+04      0.2571763981E+05      0.2564296327E+06     -0.9709927176E-01
          0                 3           5            16   35     2       0.8691591823E-02      16   35    2       0.1389466649E+03      0.1457445888E+03      0.2571763981E+05      0.8691591823E-02

    ------------------------------------------------
       NWT REQUIRED            3 OUTER ITERATIONS 
       AND A TOTAL OF         26 INNER ITERATIONS.
    ------------------------------------------------

 NO OUTPUT CONTROL FOR STRESS PERIOD   10   TIME STEP    7

 INTERPOLATION FOR HEAD OBS# 3508, ID 1473-10-213  CHANGED BECAUSE AT LEAST ONE
 NEIGHBORING CELL REQUIRED FOR INTERPOLATION IS DRY OR INACTIVE (OBS2BAS7SE)
 
 SOLVING FOR HEAD 
                                                   Max.-Head-Change                        Max.-Flux-Residual
  Residual-Control   Outer-Iter.   Inner-Iter.     Column Row Layer    Max.-Head-Change    Column Row Layer    Max.-Flux-Residual            L2-New               L2-Old           Solver-Max-Delh
          0                 1          11            12    5     3      -0.6272755754E+00      12    8    1      -0.2726826527E+05      0.2520836063E+06      0.1457445888E+03     -0.6272755754E+00
          0                 2          10            12    5     3       0.5694276062E-01      12    8    1       0.2676748149E+04      0.2521817694E+05      0.2520836063E+06      0.5694276062E-01
          0                 3           4            55   38     1       0.1066477129E-02      55   38    1       0.8392449159E+01      0.1249063630E+02      0.2521817694E+05      0.1066477129E-02

    ------------------------------------------------
       NWT REQUIRED            3 OUTER ITERATIONS 
       AND A TOTAL OF         25 INNER ITERATIONS.
    ------------------------------------------------

 NO OUTPUT CONTROL FOR STRESS PERIOD   10   TIME STEP    8
 
 SOLVING FOR HEAD 
                                                   Max.-Head-Change                        Max.-Flux-Residual
  Residual-Control   Outer-Iter.   Inner-Iter.     Column Row Layer    Max.-Head-Change    Column Row Layer    Max.-Flux-Residual            L2-New               L2-Old           Solver-Max-Delh
          0                 1          11            55   38     1      -0.9182177717E+00      12    8    1      -0.2742353085E+05      0.2485999881E+06      0.1249063630E+02     -0.9182177717E+00
          0                 2          10            55   38     1       0.7833300038E-01      12    8    1       0.2691713646E+04      0.2483543677E+05      0.2485999881E+06      0.7833300038E-01
          0                 3           4            55   38     1       0.4007475312E-03      55   38    1       0.2877270661E+01      0.5869548471E+01      0.2483543677E+05      0.4007475312E-03

    ------------------------------------------------
       NWT REQUIRED            3 OUTER ITERATIONS 
       AND A TOTAL OF         25 INNER ITERATIONS.
    ------------------------------------------------

 NO OUTPUT CONTROL FOR STRESS PERIOD   10   TIME STEP    9
 
 SOLVING FOR HEAD 
                                                   Max.-Head-Change                        Max.-Flux-Residual
  Residual-Control   Outer-Iter.   Inner-Iter.     Column Row Layer    Max.-Head-Change    Column Row Layer    Max.-Flux-Residual            L2-New               L2-Old           Solver-Max-Delh
          0                 1          11            12    5     3      -0.6344240742E+00      12    8    1      -0.2753905590E+05      0.2458921209E+06      0.5869548471E+01     -0.6344240742E+00
          0                 2          10            12    5     3       0.5758907505E-01      12    8    1       0.2702807863E+04      0.2456446752E+05      0.2458921209E+06      0.5758907505E-01
          0                 3           4            57   35     1       0.1260087627E-03      31   18    1       0.8565930426E+00      0.5147878134E+01      0.2456446752E+05      0.1260087627E-03

    ------------------------------------------------
       NWT REQUIRED            3 OUTER ITERATIONS 
       AND A TOTAL OF         25 INNER ITERATIONS.
    ------------------------------------------------

 NO OUTPUT CONTROL FOR STRESS PERIOD   10   TIME STEP   10
 
 SOLVING FOR HEAD 
                                                   Max.-Head-Change                        Max.-Flux-Residual
  Residual-Control   Outer-Iter.   Inner-Iter.     Column Row Layer    Max.-Head-Change    Column Row Layer    Max.-Flux-Residual            L2-New               L2-Old           Solver-Max-Delh
          0                 1          11            12    5     3      -0.6373226430E+00      12    8    1      -0.2762803831E+05      0.2436459137E+06      0.5147878134E+01     -0.6373226430E+00
          0                 2          10            12    5     3       0.5785095803E-01      12    8    1       0.2711315937E+04      0.2433917616E+05      0.2436459137E+06      0.5785095803E-01
          0                 3           4            57   35     1       0.1259832830E-03      13   14    1       0.8752643466E+00      0.5140365194E+01      0.2433917616E+05      0.1259832830E-03

    ------------------------------------------------
       NWT REQUIRED            3 OUTER ITERATIONS 
       AND A TOTAL OF         25 INNER ITERATIONS.
    ------------------------------------------------

 NO OUTPUT CONTROL FOR STRESS PERIOD   10   TIME STEP   11
 
 SOLVING FOR HEAD 
                                                   Max.-Head-Change                        Max.-Flux-Residual
  Residual-Control   Outer-Iter.   Inner-Iter.     Column Row Layer    Max.-Head-Change    Column Row Layer    Max.-Flux-Residual            L2-New               L2-Old           Solver-Max-Delh
          0                 1          11            12    5     3      -0.6398642261E+00      12    8    1      -0.2769524673E+05      0.2418074734E+06      0.5140365194E+01     -0.6398642261E+00
          0                 2          10            12    5     3       0.5808109785E-01      12    8    1       0.2717717225E+04      0.2413365228E+05      0.2418074734E+06      0.5808109785E-01
          0                 3           4            80   45     1      -0.1267284333E-03      13   14    1       0.8941104412E+00      0.5137056866E+01      0.2413365228E+05     -0.1267284333E-03

    ------------------------------------------------
       NWT REQUIRED            3 OUTER ITERATIONS 
       AND A TOTAL OF         25 INNER ITERATIONS.
    ------------------------------------------------

 OUTPUT CONTROL FOR STRESS PERIOD   10   TIME STEP   12
    SAVE BUDGET
 UBDSV1 SAVING "         STORAGE" ON UNIT  39 AT TIME STEP 12, STRESS PERIOD  10
 UBDSV2 SAVING "   CONSTANT HEAD" ON UNIT  39 AT TIME STEP 12, STRESS PERIOD  10
 UBDSV1 SAVING "FLOW RIGHT FACE " ON UNIT  39 AT TIME STEP 12, STRESS PERIOD  10
 UBDSV1 SAVING "FLOW FRONT FACE " ON UNIT  39 AT TIME STEP 12, STRESS PERIOD  10
 UBDSV1 SAVING "FLOW LOWER FACE " ON UNIT  39 AT TIME STEP 12, STRESS PERIOD  10
 UBDSV4 SAVING "           WELLS" ON UNIT  39 AT TIME STEP 12, STRESS PERIOD  10
 UBDSV3 SAVING "              ET" ON UNIT  39 AT TIME STEP 12, STRESS PERIOD  10
 UBDSV3 SAVING "        RECHARGE" ON UNIT  39 AT TIME STEP 12, STRESS PERIOD  10

 INTERPOLATION FOR HEAD OBS# 3398, ID 1428-11-1    CHANGED BECAUSE AT LEAST ONE
 NEIGHBORING CELL REQUIRED FOR INTERPOLATION IS DRY OR INACTIVE (OBS2BAS7SE)
1
  VOLUMETRIC BUDGET FOR ENTIRE MODEL AT END OF TIME STEP   12, STRESS PERIOD  10
  ------------------------------------------------------------------------------

     CUMULATIVE VOLUMES      L**3       RATES FOR THIS TIME STEP      L**3/T
     ------------------                 ------------------------

           IN:                                      IN:
           ---                                      ---
             STORAGE     = 22453522432.0000               STORAGE     =     9277234.0000
       CONSTANT HEAD     =  4349414912.0000         CONSTANT HEAD     =     1213305.5000
               WELLS     =  4477274112.0000                 WELLS     =     1225642.0000
                  ET     =           0.0000                    ET     =           0.0000
            RECHARGE     = 43449409536.0000              RECHARGE     =    14051623.0000

                TOTAL IN = 74729619456.0000                  TOTAL IN =    25767804.0000

          OUT:                                     OUT:
          ----                                     ----
             STORAGE     =  3008708096.0000               STORAGE     =      406128.5000
       CONSTANT HEAD     = 12062272512.0000         CONSTANT HEAD     =     3823271.5000
               WELLS     = 54889017344.0000                 WELLS     =    20423760.0000
                  ET     =  4769692160.0000                    ET     =     1114649.3750
            RECHARGE     =           0.0000              RECHARGE     =           0.0000

               TOTAL OUT = 74729693184.0000                 TOTAL OUT =    25767810.0000

                IN - OUT =      -73728.0000                  IN - OUT =          -6.0000

     PERCENT DISCREPANCY =          -0.00         PERCENT DISCREPANCY =          -0.00






         TIME SUMMARY AT END OF TIME STEP   12 IN STRESS PERIOD   10
                    SECONDS     MINUTES      HOURS       DAYS        YEARS
                    -----------------------------------------------------------
   TIME STEP LENGTH 2.62800E+06  43800.      730.00      30.417     8.32763E-02
 STRESS PERIOD TIME 3.15360E+07 5.25600E+05  8760.0      365.00     0.99932    
         TOTAL TIME 3.15619E+08 5.26032E+06  87672.      3653.0      10.001    
1
1
                            STRESS PERIOD NO.   11, LENGTH =   365.0000    
                            -----------------------------------------------

                              NUMBER OF TIME STEPS =    12

                               MULTIPLIER FOR DELT =     1.000

                            INITIAL TIME STEP SIZE =   30.41667    

   1022 WELLS

 REUSING SURF FROM LAST STRESS PERIOD

 REUSING EVTR FROM LAST STRESS PERIOD

 REUSING EXDP FROM LAST STRESS PERIOD



                           RECHARGE
 READING ON UNIT   16 WITH FORMAT: (15F5.0)            


     63 TIME-VARIANT SPECIFIED-HEAD CELLS
 
 SOLVING FOR HEAD 
                                                   Max.-Head-Change                        Max.-Flux-Residual
  Residual-Control   Outer-Iter.   Inner-Iter.     Column Row Layer    Max.-Head-Change    Column Row Layer    Max.-Flux-Residual            L2-New               L2-Old           Solver-Max-Delh
          0                 1          11            65    2     2       0.2961167839E+02      60  100    1      -0.1965941359E+06      0.8649965816E+06      0.5137056866E+01      0.2961167839E+02
          0                 2          10            79   48     2       0.2154983865E+01      60  100    1       0.1770745454E+05      0.8613096622E+05      0.8649965816E+06      0.2154983865E+01
          0                 3           6            65    2     2      -0.5781425552E-01      64   82    2      -0.4598167373E+03      0.9041330722E+03      0.8613096622E+05     -0.5781425552E-01
          0                 4           4            65    2     2      -0.3321922998E-02      63   82    2       0.3444940620E+02      0.4492702647E+02      0.9041330722E+03     -0.3321922998E-02

    ------------------------------------------------
       NWT REQUIRED            4 OUTER ITERATIONS 
       AND A TOTAL OF         31 INNER ITERATIONS.
    ------------------------------------------------

 NO OUTPUT CONTROL FOR STRESS PERIOD   11   TIME STEP    1

 INTERPOLATION FOR HEAD OBS#  634, ID 3016-11-53   CHANGED BECAUSE AT LEAST ONE
 NEIGHBORING CELL REQUIRED FOR INTERPOLATION IS DRY OR INACTIVE (OBS2BAS7SE)

 INTERPOLATION FOR HEAD OBS#  647, ID 3055-11-56   CHANGED BECAUSE AT LEAST ONE
 NEIGHBORING CELL REQUIRED FOR INTERPOLATION IS DRY OR INACTIVE (OBS2BAS7SE)

 INTERPOLATION FOR HEAD OBS# 3655, ID 1891-11-38   CHANGED BECAUSE AT LEAST ONE
 NEIGHBORING CELL REQUIRED FOR INTERPOLATION IS DRY OR INACTIVE (OBS2BAS7SE)
 
 SOLVING FOR HEAD 
                                                   Max.-Head-Change                        Max.-Flux-Residual
  Residual-Control   Outer-Iter.   Inner-Iter.     Column Row Layer    Max.-Head-Change    Column Row Layer    Max.-Flux-Residual            L2-New               L2-Old           Solver-Max-Delh
          0                 1          11            42   32     1       0.1940565448E+01      60  100    1      -0.9467491269E+05      0.5097755906E+06      0.4492702647E+02      0.1940565448E+01
          0                 2          10            42   32     1      -0.1796399938E+00      60  100    1       0.1154430271E+05      0.5140450189E+05      0.5097755906E+06     -0.1796399938E+00
          0                 3           5            66   26     2      -0.1093381064E-01      66   26    2      -0.3197543938E+03      0.3546724170E+03      0.5140450189E+05     -0.1093381064E-01
          0                 4           3            65    2     2      -0.6069014057E-04      62   84    1      -0.6137779951E+00      0.9149360733E+00      0.3546724170E+03     -0.6069014057E-04

    ------------------------------------------------
       NWT REQUIRED            4 OUTER ITERATIONS 
       AND A TOTAL OF         29 INNER ITERATIONS.
    ------------------------------------------------

 NO OUTPUT CONTROL FOR STRESS PERIOD   11   TIME STEP    2

 INTERPOLATION FOR HEAD OBS# 1562, ID 2931-11-62   CHANGED BECAUSE AT LEAST ONE
 NEIGHBORING CELL REQUIRED FOR INTERPOLATION IS DRY OR INACTIVE (OBS2BAS7SE)

 INTERPOLATION FOR HEAD OBS# 3191, ID 2435-11-80   CHANGED BECAUSE AT LEAST ONE
 NEIGHBORING CELL REQUIRED FOR INTERPOLATION IS DRY OR INACTIVE (OBS2BAS7SE)
 
 SOLVING FOR HEAD 
                                                   Max.-Head-Change                        Max.-Flux-Residual
  Residual-Control   Outer-Iter.   Inner-Iter.     Column Row Layer    Max.-Head-Change    Column Row Layer    Max.-Flux-Residual            L2-New               L2-Old           Solver-Max-Delh
          0                 1          11            42   32     1       0.1487893907E+01      42   32    1       0.6860072440E+05      0.4093570478E+06      0.9149360733E+00      0.1487893907E+01
          0                 2          10            42   32     1      -0.1369808062E+00      42   32    1      -0.7006970369E+04      0.4091475514E+05      0.4093570478E+06     -0.1369808062E+00
          0                 3           4            67    9     2      -0.2872818770E-02      26   13    1       0.3888707475E+02      0.5828439060E+02      0.4091475514E+05     -0.2872818770E-02

    ------------------------------------------------
       NWT REQUIRED            3 OUTER ITERATIONS 
       AND A TOTAL OF         25 INNER ITERATIONS.
    ------------------------------------------------

 NO OUTPUT CONTROL FOR STRESS PERIOD   11   TIME STEP    3

 INTERPOLATION FOR HEAD OBS# 1240, ID 2727-11-121  CHANGED BECAUSE AT LEAST ONE
 NEIGHBORING CELL REQUIRED FOR INTERPOLATION IS DRY OR INACTIVE (OBS2BAS7SE)
 
 SOLVING FOR HEAD 
                                                   Max.-Head-Change                        Max.-Flux-Residual
  Residual-Control   Outer-Iter.   Inner-Iter.     Column Row Layer    Max.-Head-Change    Column Row Layer    Max.-Flux-Residual            L2-New               L2-Old           Solver-Max-Delh
          0                 1          11            70   19     2       0.1280936854E+01      42   32    1       0.5262852967E+05      0.3645582735E+06      0.5828439060E+02      0.1280936854E+01
          0                 2          10            70   19     2      -0.1155958642E+00      42   32    1      -0.5344055090E+04      0.3647333741E+05      0.3645582735E+06     -0.1155958642E+00
          0                 3           4            73   13     3      -0.1798081277E-02      73   13    3      -0.6062821332E+01      0.1352968219E+02      0.3647333741E+05     -0.1798081277E-02

    ------------------------------------------------
       NWT REQUIRED            3 OUTER ITERATIONS 
       AND A TOTAL OF         25 INNER ITERATIONS.
    ------------------------------------------------

 NO OUTPUT CONTROL FOR STRESS PERIOD   11   TIME STEP    4
 
 SOLVING FOR HEAD 
                                                   Max.-Head-Change                        Max.-Flux-Residual
  Residual-Control   Outer-Iter.   Inner-Iter.     Column Row Layer    Max.-Head-Change    Column Row Layer    Max.-Flux-Residual            L2-New               L2-Old           Solver-Max-Delh
          0                 1          11            70   19     2       0.1198166047E+01      42   32    1       0.4170657573E+05      0.3381596489E+06      0.1352968219E+02      0.1198166047E+01
          0                 2          10            70   19     2      -0.1080931948E+00      42   32    1      -0.4217866013E+04      0.3377935274E+05      0.3381596489E+06     -0.1080931948E+00
          0                 3           4            73   15     1      -0.8624043891E-03      70   19    1      -0.3118663400E+01      0.1003175747E+02      0.3377935274E+05     -0.8624043891E-03

    ------------------------------------------------
       NWT REQUIRED            3 OUTER ITERATIONS 
       AND A TOTAL OF         25 INNER ITERATIONS.
    ------------------------------------------------

 NO OUTPUT CONTROL FOR STRESS PERIOD   11   TIME STEP    5
 
 SOLVING FOR HEAD 
                                                   Max.-Head-Change                        Max.-Flux-Residual
  Residual-Control   Outer-Iter.   Inner-Iter.     Column Row Layer    Max.-Head-Change    Column Row Layer    Max.-Flux-Residual            L2-New               L2-Old           Solver-Max-Delh
          0                 1          11            70   19     2       0.1123309584E+01      79   48    1      -0.3900041027E+05      0.3202901454E+06      0.1003175747E+02      0.1123309584E+01
          0                 2          10            70   19     2      -0.1013119584E+00      79   48    1       0.3886244704E+04      0.3200253486E+05      0.3202901454E+06     -0.1013119584E+00
          0                 3           4            73   15     1      -0.8624807011E-03      70   19    1      -0.2923597798E+01      0.9826956453E+01      0.3200253486E+05     -0.8624807011E-03

    ------------------------------------------------
       NWT REQUIRED            3 OUTER ITERATIONS 
       AND A TOTAL OF         25 INNER ITERATIONS.
    ------------------------------------------------

 NO OUTPUT CONTROL FOR STRESS PERIOD   11   TIME STEP    6
 
 SOLVING FOR HEAD 
                                                   Max.-Head-Change                        Max.-Flux-Residual
  Residual-Control   Outer-Iter.   Inner-Iter.     Column Row Layer    Max.-Head-Change    Column Row Layer    Max.-Flux-Residual            L2-New               L2-Old           Solver-Max-Delh
          0                 1          11            70   19     2       0.1055491568E+01      79   48    1      -0.3690106879E+05      0.3072522732E+06      0.9826956453E+01      0.1055491568E+01
          0                 2          10            65   44     2       0.9635198030E-01      65   44    2       0.4557202800E+04      0.3104115881E+05      0.3072522732E+06      0.9635198030E-01
          0                 3           4            73   48     1      -0.1127837206E-02      73   48    1      -0.6569503261E+02      0.6639008209E+02      0.3104115881E+05     -0.1127837206E-02

    ------------------------------------------------
       NWT REQUIRED            3 OUTER ITERATIONS 
       AND A TOTAL OF         25 INNER ITERATIONS.
    ------------------------------------------------

 NO OUTPUT CONTROL FOR STRESS PERIOD   11   TIME STEP    7
 
 SOLVING FOR HEAD 
                                                   Max.-Head-Change                        Max.-Flux-Residual
  Residual-Control   Outer-Iter.   Inner-Iter.     Column Row Layer    Max.-Head-Change    Column Row Layer    Max.-Flux-Residual            L2-New               L2-Old           Solver-Max-Delh
          0                 1          11            70   19     2       0.9939382568E+00      79   48    1      -0.3490235969E+05      0.2972413208E+06      0.6639008209E+02      0.9939382568E+00
          0                 2          10            67   23     1      -0.1587950631E+00      67   23    1      -0.7839726902E+04      0.3079474379E+05      0.2972413208E+06     -0.1587950631E+00
          0                 3           4            73   15     1      -0.8479431255E-03      80   49    1      -0.1448194044E+02      0.1728156870E+02      0.3079474379E+05     -0.8479431255E-03

    ------------------------------------------------
       NWT REQUIRED            3 OUTER ITERATIONS 
       AND A TOTAL OF         25 INNER ITERATIONS.
    ------------------------------------------------

 NO OUTPUT CONTROL FOR STRESS PERIOD   11   TIME STEP    8
 
 SOLVING FOR HEAD 
                                                   Max.-Head-Change                        Max.-Flux-Residual
  Residual-Control   Outer-Iter.   Inner-Iter.     Column Row Layer    Max.-Head-Change    Column Row Layer    Max.-Flux-Residual            L2-New               L2-Old           Solver-Max-Delh
          0                 1          11            70   19     2       0.9379637230E+00      79   48    1      -0.3300943256E+05      0.2893067620E+06      0.1728156870E+02      0.9379637230E+00
          0                 2          10            70   19     2      -0.8454057581E-01      79   48    1       0.3290644149E+04      0.2890317435E+05      0.2893067620E+06     -0.8454057581E-01
          0                 3           4            73   15     1      -0.8397848987E-03      80   49    1       0.3929173036E+02      0.4059745103E+02      0.2890317435E+05     -0.8397848987E-03

    ------------------------------------------------
       NWT REQUIRED            3 OUTER ITERATIONS 
       AND A TOTAL OF         25 INNER ITERATIONS.
    ------------------------------------------------

 NO OUTPUT CONTROL FOR STRESS PERIOD   11   TIME STEP    9

 INTERPOLATION FOR HEAD OBS# 1011, ID 2643-11-275  CHANGED BECAUSE AT LEAST ONE
 NEIGHBORING CELL REQUIRED FOR INTERPOLATION IS DRY OR INACTIVE (OBS2BAS7SE)

 INTERPOLATION FOR HEAD OBS# 3704, ID 1471-11-278  CHANGED BECAUSE AT LEAST ONE
 NEIGHBORING CELL REQUIRED FOR INTERPOLATION IS DRY OR INACTIVE (OBS2BAS7SE)
 
 SOLVING FOR HEAD 
                                                   Max.-Head-Change                        Max.-Flux-Residual
  Residual-Control   Outer-Iter.   Inner-Iter.     Column Row Layer    Max.-Head-Change    Column Row Layer    Max.-Flux-Residual            L2-New               L2-Old           Solver-Max-Delh
          0                 1          11            70   19     2       0.8869685854E+00      79   48    1      -0.3122632341E+05      0.2829336267E+06      0.4059745103E+02      0.8869685854E+00
          0                 2          10            70   19     2      -0.7993061898E-01      79   48    1       0.3335515480E+04      0.2829179211E+05      0.2829336267E+06     -0.7993061898E-01
          0                 3           5            73   15     1      -0.8311248176E-03      62  106    1       0.8907415479E+01      0.1552954242E+02      0.2829179211E+05     -0.8311248176E-03

    ------------------------------------------------
       NWT REQUIRED            3 OUTER ITERATIONS 
       AND A TOTAL OF         26 INNER ITERATIONS.
    ------------------------------------------------

 NO OUTPUT CONTROL FOR STRESS PERIOD   11   TIME STEP   10
 
 SOLVING FOR HEAD 
                                                   Max.-Head-Change                        Max.-Flux-Residual
  Residual-Control   Outer-Iter.   Inner-Iter.     Column Row Layer    Max.-Head-Change    Column Row Layer    Max.-Flux-Residual            L2-New               L2-Old           Solver-Max-Delh
          0                 1          11            70   19     2       0.8404208048E+00      79   48    1      -0.2939494517E+05      0.2776484698E+06      0.1552954242E+02      0.8404208048E+00
          0                 2          10            65   44     1      -0.1041792903E+00      79   48    1       0.2934540600E+04      0.2777127171E+05      0.2776484698E+06     -0.1041792903E+00
          0                 3           4            65   44     1       0.9147001107E-02      65   44    1       0.1166004299E+03      0.1270845186E+03      0.2777127171E+05      0.9147001107E-02

    ------------------------------------------------
       NWT REQUIRED            3 OUTER ITERATIONS 
       AND A TOTAL OF         25 INNER ITERATIONS.
    ------------------------------------------------

 NO OUTPUT CONTROL FOR STRESS PERIOD   11   TIME STEP   11
 
 SOLVING FOR HEAD 
                                                   Max.-Head-Change                        Max.-Flux-Residual
  Residual-Control   Outer-Iter.   Inner-Iter.     Column Row Layer    Max.-Head-Change    Column Row Layer    Max.-Flux-Residual            L2-New               L2-Old           Solver-Max-Delh
          0                 1          11            73   15     3       0.8212988931E+00      79   48    1      -0.2749128169E+05      0.2731542014E+06      0.1270845186E+03      0.8212988931E+00
          0                 2          10            73   15     3      -0.7296525318E-01      79   48    1       0.2744830131E+04      0.2729908924E+05      0.2731542014E+06     -0.7296525318E-01
          0                 3           4            66    8     3      -0.1657125874E-02      66    8    3      -0.2816758087E+02      0.3632580243E+02      0.2729908924E+05     -0.1657125874E-02

    ------------------------------------------------
       NWT REQUIRED            3 OUTER ITERATIONS 
       AND A TOTAL OF         25 INNER ITERATIONS.
    ------------------------------------------------

 OUTPUT CONTROL FOR STRESS PERIOD   11   TIME STEP   12
    SAVE BUDGET
    SAVE HEAD FOR LAYERS:   1  2  3
 UBDSV1 SAVING "         STORAGE" ON UNIT  39 AT TIME STEP 12, STRESS PERIOD  11
 UBDSV2 SAVING "   CONSTANT HEAD" ON UNIT  39 AT TIME STEP 12, STRESS PERIOD  11
 UBDSV1 SAVING "FLOW RIGHT FACE " ON UNIT  39 AT TIME STEP 12, STRESS PERIOD  11
 UBDSV1 SAVING "FLOW FRONT FACE " ON UNIT  39 AT TIME STEP 12, STRESS PERIOD  11
 UBDSV1 SAVING "FLOW LOWER FACE " ON UNIT  39 AT TIME STEP 12, STRESS PERIOD  11
 UBDSV4 SAVING "           WELLS" ON UNIT  39 AT TIME STEP 12, STRESS PERIOD  11
 UBDSV3 SAVING "              ET" ON UNIT  39 AT TIME STEP 12, STRESS PERIOD  11
 UBDSV3 SAVING "        RECHARGE" ON UNIT  39 AT TIME STEP 12, STRESS PERIOD  11

 HEAD WILL BE SAVED ON UNIT   31 AT END OF TIME STEP   12, STRESS PERIOD   11
1
  VOLUMETRIC BUDGET FOR ENTIRE MODEL AT END OF TIME STEP   12, STRESS PERIOD  11
  ------------------------------------------------------------------------------

     CUMULATIVE VOLUMES      L**3       RATES FOR THIS TIME STEP      L**3/T
     ------------------                 ------------------------

           IN:                                      IN:
           ---                                      ---
             STORAGE     = 26349705216.0000               STORAGE     =    10174867.0000
       CONSTANT HEAD     =  4788622848.0000         CONSTANT HEAD     =     1198658.7500
               WELLS     =  4924631040.0000                 WELLS     =     1225642.0000
                  ET     =           0.0000                    ET     =           0.0000
            RECHARGE     = 48446349312.0000              RECHARGE     =    13690261.0000

                TOTAL IN = 84509310976.0000                  TOTAL IN =    26289428.0000

          OUT:                                     OUT:
          ----                                     ----
             STORAGE     =  3753391872.0000               STORAGE     =     1657761.6250
       CONSTANT HEAD     = 13482434560.0000         CONSTANT HEAD     =     3944571.0000
               WELLS     = 62239846400.0000                 WELLS     =    20139292.0000
                  ET     =  5033707008.0000                    ET     =      547809.3750
            RECHARGE     =           0.0000              RECHARGE     =           0.0000

               TOTAL OUT = 84509376512.0000                 TOTAL OUT =    26289434.0000

                IN - OUT =      -65536.0000                  IN - OUT =          -6.0000

     PERCENT DISCREPANCY =          -0.00         PERCENT DISCREPANCY =          -0.00






         TIME SUMMARY AT END OF TIME STEP   12 IN STRESS PERIOD   11
                    SECONDS     MINUTES      HOURS       DAYS        YEARS
                    -----------------------------------------------------------
   TIME STEP LENGTH 2.62800E+06  43800.      730.00      30.417     8.32763E-02
 STRESS PERIOD TIME 3.15360E+07 5.25600E+05  8760.0      365.00     0.99932    
         TOTAL TIME 3.47156E+08 5.78593E+06  96432.      4018.0      11.001    
1
1
                            STRESS PERIOD NO.   12, LENGTH =   365.0000    
                            -----------------------------------------------

                              NUMBER OF TIME STEPS =    12

                               MULTIPLIER FOR DELT =     1.000

                            INITIAL TIME STEP SIZE =   30.41667    

   1330 WELLS

 REUSING SURF FROM LAST STRESS PERIOD

 REUSING EVTR FROM LAST STRESS PERIOD

 REUSING EXDP FROM LAST STRESS PERIOD



                           RECHARGE
 READING ON UNIT   16 WITH FORMAT: (15F5.0)            


     63 TIME-VARIANT SPECIFIED-HEAD CELLS
 
 SOLVING FOR HEAD 
                                                   Max.-Head-Change                        Max.-Flux-Residual
  Residual-Control   Outer-Iter.   Inner-Iter.     Column Row Layer    Max.-Head-Change    Column Row Layer    Max.-Flux-Residual            L2-New               L2-Old           Solver-Max-Delh
          0                 1          12            65    2     2      -0.2946988502E+02      23   20    2      -0.2543119199E+06      0.1122518225E+07      0.3632580243E+02     -0.2946988502E+02
          0                 2          11            72   48     3       0.2348358916E+01      23   20    2       0.2543119238E+05      0.1108626653E+06      0.1122518225E+07      0.2348358916E+01
          0                 3           7            65    7     2       0.7080789318E-01      15   38    3       0.2793714164E+03      0.5623783164E+03      0.1108626653E+06      0.7080789318E-01
          0                 4           5            65    2     2       0.3178788190E-02      16   38    3      -0.1973435749E+02      0.2539967400E+02      0.5623783164E+03      0.3178788190E-02

    ------------------------------------------------
       NWT REQUIRED            4 OUTER ITERATIONS 
       AND A TOTAL OF         35 INNER ITERATIONS.
    ------------------------------------------------

 NO OUTPUT CONTROL FOR STRESS PERIOD   12   TIME STEP    1
 
 SOLVING FOR HEAD 
                                                   Max.-Head-Change                        Max.-Flux-Residual
  Residual-Control   Outer-Iter.   Inner-Iter.     Column Row Layer    Max.-Head-Change    Column Row Layer    Max.-Flux-Residual            L2-New               L2-Old           Solver-Max-Delh
          0                 1          11            72   48     3      -0.7871104216E+01      72   48    1       0.8144229170E+05      0.6425430492E+06      0.2539967400E+02     -0.7871104216E+01
          0                 2          10            72   48     3       0.7155297717E+00      34   20    2       0.9158013648E+04      0.6473133021E+05      0.6425430492E+06      0.7155297717E+00
          0                 3           7            34   20     1      -0.8692147131E-01      34   20    1      -0.4556174140E+04      0.4576916872E+04      0.6473133021E+05     -0.8692147131E-01
          0                 4           5            34   20     1      -0.7831684236E-02      34   20    1      -0.4103925516E+03      0.4104192570E+03      0.4576916872E+04     -0.7831684236E-02

    ------------------------------------------------
       NWT REQUIRED            4 OUTER ITERATIONS 
       AND A TOTAL OF         33 INNER ITERATIONS.
    ------------------------------------------------

 NO OUTPUT CONTROL FOR STRESS PERIOD   12   TIME STEP    2
 
 SOLVING FOR HEAD 
                                                   Max.-Head-Change                        Max.-Flux-Residual
  Residual-Control   Outer-Iter.   Inner-Iter.     Column Row Layer    Max.-Head-Change    Column Row Layer    Max.-Flux-Residual            L2-New               L2-Old           Solver-Max-Delh
          0                 1          11            72   48     3      -0.3590141684E+01      72   48    1       0.6727495477E+05      0.5343374717E+06      0.4104192570E+03     -0.3590141684E+01
          0                 2          10            72   48     3       0.3274653251E+00      72   48    1      -0.6766916754E+04      0.5403095026E+05      0.5343374717E+06      0.3274653251E+00
          0                 3           6            34   20     1       0.2433066824E-01      34   20    1       0.5402853750E+03      0.6285147809E+03      0.5403095026E+05      0.2433066824E-01
          0                 4           2            64   45     1       0.6645542443E-04      64   45    1       0.4518965662E+01      0.4708636221E+01      0.6285147809E+03      0.6645542443E-04

    ------------------------------------------------
       NWT REQUIRED            4 OUTER ITERATIONS 
       AND A TOTAL OF         29 INNER ITERATIONS.
    ------------------------------------------------

 NO OUTPUT CONTROL FOR STRESS PERIOD   12   TIME STEP    3

 INTERPOLATION FOR HEAD OBS# 6990, ID 683-12-102   CHANGED BECAUSE AT LEAST ONE
 NEIGHBORING CELL REQUIRED FOR INTERPOLATION IS DRY OR INACTIVE (OBS2BAS7SE)
 
 SOLVING FOR HEAD 
                                                   Max.-Head-Change                        Max.-Flux-Residual
  Residual-Control   Outer-Iter.   Inner-Iter.     Column Row Layer    Max.-Head-Change    Column Row Layer    Max.-Flux-Residual            L2-New               L2-Old           Solver-Max-Delh
          0                 1          11            72   47     3      -0.2085672149E+01      72   48    1       0.5582555828E+05      0.4841734680E+06      0.4708636221E+01     -0.2085672149E+01
          0                 2          10            72   47     3       0.1896059566E+00      56   36    2       0.8484338348E+04      0.4912180559E+05      0.4841734680E+06      0.1896059566E+00
          0                 3           5            69  101     1       0.3884357226E-02      55   49    1       0.9192393366E+02      0.1148879184E+03      0.4912180559E+05      0.3884357226E-02

    ------------------------------------------------
       NWT REQUIRED            3 OUTER ITERATIONS 
       AND A TOTAL OF         26 INNER ITERATIONS.
    ------------------------------------------------

 NO OUTPUT CONTROL FOR STRESS PERIOD   12   TIME STEP    4
 
 SOLVING FOR HEAD 
                                                   Max.-Head-Change                        Max.-Flux-Residual
  Residual-Control   Outer-Iter.   Inner-Iter.     Column Row Layer    Max.-Head-Change    Column Row Layer    Max.-Flux-Residual            L2-New               L2-Old           Solver-Max-Delh
          0                 1          11            72   47     3      -0.1477889819E+01      72   48    1       0.4663562762E+05      0.4549039190E+06      0.1148879184E+03     -0.1477889819E+01
          0                 2          10            72   47     3       0.1342955800E+00      72   48    1      -0.4682897507E+04      0.4564802270E+05      0.4549039190E+06      0.1342955800E+00
          0                 3           6            16   40     3       0.2336344866E-02      16   40    3       0.1227155217E+03      0.1233258849E+03      0.4564802270E+05      0.2336344866E-02

    ------------------------------------------------
       NWT REQUIRED            3 OUTER ITERATIONS 
       AND A TOTAL OF         27 INNER ITERATIONS.
    ------------------------------------------------

 NO OUTPUT CONTROL FOR STRESS PERIOD   12   TIME STEP    5
 
 SOLVING FOR HEAD 
                                                   Max.-Head-Change                        Max.-Flux-Residual
  Residual-Control   Outer-Iter.   Inner-Iter.     Column Row Layer    Max.-Head-Change    Column Row Layer    Max.-Flux-Residual            L2-New               L2-Old           Solver-Max-Delh
          0                 1          11            81   45     1       0.1238994198E+01      81   46    1       0.4068777893E+05      0.4355483336E+06      0.1233258849E+03      0.1238994198E+01
          0                 2          10            16   40     3       0.2171271089E+00      16   40    3       0.1383325794E+05      0.4611735185E+05      0.4355483336E+06      0.2171271089E+00
          0                 3           6            22   30     1       0.1359318122E-01      22   30    1       0.3128545402E+03      0.4020664871E+03      0.4611735185E+05      0.1359318122E-01
          0                 4           3            61   75     1      -0.2470945458E-04      61   75    1      -0.2675646067E+01      0.2829131563E+01      0.4020664871E+03     -0.2470945458E-04

    ------------------------------------------------
       NWT REQUIRED            4 OUTER ITERATIONS 
       AND A TOTAL OF         30 INNER ITERATIONS.
    ------------------------------------------------

 NO OUTPUT CONTROL FOR STRESS PERIOD   12   TIME STEP    6
 
 SOLVING FOR HEAD 
                                                   Max.-Head-Change                        Max.-Flux-Residual
  Residual-Control   Outer-Iter.   Inner-Iter.     Column Row Layer    Max.-Head-Change    Column Row Layer    Max.-Flux-Residual            L2-New               L2-Old           Solver-Max-Delh
          0                 1          11            81   46     1       0.1168987405E+01      81   46    1       0.3760834143E+05      0.4216819627E+06      0.2829131563E+01      0.1168987405E+01
          0                 2          10            32   35     1      -0.4670237407E+00      16   39    3       0.5233856632E+04      0.4257715531E+05      0.4216819627E+06     -0.4670237407E+00
          0                 3           5            32   35     1       0.4021918033E-01      32   35    1       0.2479442470E+03      0.2700958069E+03      0.4257715531E+05      0.4021918033E-01
          0                 4           2            32   35     1       0.1927243144E-03      32   35    1       0.1107226821E+01      0.1243360759E+01      0.2700958069E+03      0.1927243144E-03

    ------------------------------------------------
       NWT REQUIRED            4 OUTER ITERATIONS 
       AND A TOTAL OF         28 INNER ITERATIONS.
    ------------------------------------------------

 NO OUTPUT CONTROL FOR STRESS PERIOD   12   TIME STEP    7
 
 SOLVING FOR HEAD 
                                                   Max.-Head-Change                        Max.-Flux-Residual
  Residual-Control   Outer-Iter.   Inner-Iter.     Column Row Layer    Max.-Head-Change    Column Row Layer    Max.-Flux-Residual            L2-New               L2-Old           Solver-Max-Delh
          0                 1          11            32   35     1      -0.1153536987E+01      81   46    1       0.3654394973E+05      0.4119101668E+06      0.1243360759E+01     -0.1153536987E+01
          0                 2          10            34   34     1      -0.2209993149E+00      81   46    1      -0.3656460409E+04      0.4134866392E+05      0.4119101668E+06     -0.2209993149E+00
          0                 3           6            34   34     1       0.1951933791E-01      16   39    2       0.3467105900E+03      0.4311763145E+03      0.4134866392E+05      0.1951933791E-01
          0                 4           2            34   34     1       0.5014356753E-04      58   76    2      -0.7025773972E+00      0.8562756877E+00      0.4311763145E+03      0.5014356753E-04

    ------------------------------------------------
       NWT REQUIRED            4 OUTER ITERATIONS 
       AND A TOTAL OF         29 INNER ITERATIONS.
    ------------------------------------------------

 NO OUTPUT CONTROL FOR STRESS PERIOD   12   TIME STEP    8

 INTERPOLATION FOR HEAD OBS# 1241, ID 2789-12-271  CHANGED BECAUSE AT LEAST ONE
 NEIGHBORING CELL REQUIRED FOR INTERPOLATION IS DRY OR INACTIVE (OBS2BAS7SE)
 
 SOLVING FOR HEAD 
                                                   Max.-Head-Change                        Max.-Flux-Residual
  Residual-Control   Outer-Iter.   Inner-Iter.     Column Row Layer    Max.-Head-Change    Column Row Layer    Max.-Flux-Residual            L2-New               L2-Old           Solver-Max-Delh
          0                 1          11            81   46     1       0.1101416800E+01      81   46    1       0.3548382668E+05      0.4042183322E+06      0.8562756877E+00      0.1101416800E+01
          0                 2          10            39   31     1      -0.7522235344E+00      39   31    1      -0.3735568637E+04      0.4056995215E+05      0.4042183322E+06     -0.7522235344E+00
          0                 3           5            39   31     1       0.6447565450E-01      39   31    1       0.3528074586E+03      0.3611404260E+03      0.4056995215E+05      0.6447565450E-01
          0                 4           2            39   31     1       0.3355541925E-03      39   31    1       0.1775027908E+01      0.1796237517E+01      0.3611404260E+03      0.3355541925E-03

    ------------------------------------------------
       NWT REQUIRED            4 OUTER ITERATIONS 
       AND A TOTAL OF         28 INNER ITERATIONS.
    ------------------------------------------------

 NO OUTPUT CONTROL FOR STRESS PERIOD   12   TIME STEP    9
 
 SOLVING FOR HEAD 
                                                   Max.-Head-Change                        Max.-Flux-Residual
  Residual-Control   Outer-Iter.   Inner-Iter.     Column Row Layer    Max.-Head-Change    Column Row Layer    Max.-Flux-Residual            L2-New               L2-Old           Solver-Max-Delh
          0                 1          11            81   46     1       0.1068145352E+01      81   46    1       0.3443207308E+05      0.3982724378E+06      0.1796237517E+01      0.1068145352E+01
          0                 2          10            81   46     1      -0.9714737423E-01      81   46    1      -0.3445123981E+04      0.3993230216E+05      0.3982724378E+06     -0.9714737423E-01
          0                 3           5            30    6     2       0.1774907878E-02      30    6    2       0.1786912833E+02      0.2653381731E+02      0.3993230216E+05      0.1774907878E-02

    ------------------------------------------------
       NWT REQUIRED            3 OUTER ITERATIONS 
       AND A TOTAL OF         26 INNER ITERATIONS.
    ------------------------------------------------

 NO OUTPUT CONTROL FOR STRESS PERIOD   12   TIME STEP   10

 INTERPOLATION FOR HEAD OBS# 6259, ID 987-12-324   CHANGED BECAUSE AT LEAST ONE
 NEIGHBORING CELL REQUIRED FOR INTERPOLATION IS DRY OR INACTIVE (OBS2BAS7SE)
 
 SOLVING FOR HEAD 
                                                   Max.-Head-Change                        Max.-Flux-Residual
  Residual-Control   Outer-Iter.   Inner-Iter.     Column Row Layer    Max.-Head-Change    Column Row Layer    Max.-Flux-Residual            L2-New               L2-Old           Solver-Max-Delh
          0                 1          11            81   46     1       0.1035347460E+01      81   46    1       0.3339219026E+05      0.3933469422E+06      0.2653381731E+02      0.1035347460E+01
          0                 2          10            22   31     1      -0.1179523103E+00      81   46    1      -0.3341044286E+04      0.3942338760E+05      0.3933469422E+06     -0.1179523103E+00
          0                 3           6            30   17     2       0.1057197575E-01      30   17    2       0.5332336864E+03      0.5849285906E+03      0.3942338760E+05      0.1057197575E-01
          0                 4           2            22   31     1       0.1639566120E-04      67   48    2       0.3526551686E+00      0.4990590543E+00      0.5849285906E+03      0.1639566120E-04

    ------------------------------------------------
       NWT REQUIRED            4 OUTER ITERATIONS 
       AND A TOTAL OF         29 INNER ITERATIONS.
    ------------------------------------------------

 NO OUTPUT CONTROL FOR STRESS PERIOD   12   TIME STEP   11
 
 SOLVING FOR HEAD 
                                                   Max.-Head-Change                        Max.-Flux-Residual
  Residual-Control   Outer-Iter.   Inner-Iter.     Column Row Layer    Max.-Head-Change    Column Row Layer    Max.-Flux-Residual            L2-New               L2-Old           Solver-Max-Delh
          0                 1          11            81   46     1       0.1003102036E+01      81   46    1       0.3236709852E+05      0.3892034558E+06      0.4990590543E+00      0.1003102036E+01
          0                 2          10            30   17     2       0.1414778417E+00      30   17    2       0.9795240744E+04      0.4022642066E+05      0.3892034558E+06      0.1414778417E+00
          0                 3           5            22   33     1       0.9676376387E-02      22   33    1       0.2189353341E+03      0.2313498188E+03      0.4022642066E+05      0.9676376387E-02

    ------------------------------------------------
       NWT REQUIRED            3 OUTER ITERATIONS 
       AND A TOTAL OF         26 INNER ITERATIONS.
    ------------------------------------------------

 OUTPUT CONTROL FOR STRESS PERIOD   12   TIME STEP   12
    SAVE BUDGET
 UBDSV1 SAVING "         STORAGE" ON UNIT  39 AT TIME STEP 12, STRESS PERIOD  12
 UBDSV2 SAVING "   CONSTANT HEAD" ON UNIT  39 AT TIME STEP 12, STRESS PERIOD  12
 UBDSV1 SAVING "FLOW RIGHT FACE " ON UNIT  39 AT TIME STEP 12, STRESS PERIOD  12
 UBDSV1 SAVING "FLOW FRONT FACE " ON UNIT  39 AT TIME STEP 12, STRESS PERIOD  12
 UBDSV1 SAVING "FLOW LOWER FACE " ON UNIT  39 AT TIME STEP 12, STRESS PERIOD  12
 UBDSV4 SAVING "           WELLS" ON UNIT  39 AT TIME STEP 12, STRESS PERIOD  12
 UBDSV3 SAVING "              ET" ON UNIT  39 AT TIME STEP 12, STRESS PERIOD  12
 UBDSV3 SAVING "        RECHARGE" ON UNIT  39 AT TIME STEP 12, STRESS PERIOD  12
1
  VOLUMETRIC BUDGET FOR ENTIRE MODEL AT END OF TIME STEP   12, STRESS PERIOD  12
  ------------------------------------------------------------------------------

     CUMULATIVE VOLUMES      L**3       RATES FOR THIS TIME STEP      L**3/T
     ------------------                 ------------------------

           IN:                                      IN:
           ---                                      ---
             STORAGE     = 32928174080.0000               STORAGE     =    17513100.0000
       CONSTANT HEAD     =  5267987456.0000         CONSTANT HEAD     =     1349545.3750
               WELLS     =  5371987968.0000                 WELLS     =     1225642.0000
                  ET     =           0.0000                    ET     =           0.0000
            RECHARGE     = 52908171264.0000              RECHARGE     =    12224163.0000

                TOTAL IN = 96476323840.0000                  TOTAL IN =    32312452.0000

          OUT:                                     OUT:
          ----                                     ----
             STORAGE     =  4171335424.0000               STORAGE     =      600928.1875
       CONSTANT HEAD     = 14905995264.0000         CONSTANT HEAD     =     3857894.5000
               WELLS     = 72086765568.0000                 WELLS     =    26977902.0000
                  ET     =  5312283136.0000                    ET     =      875726.0000
            RECHARGE     =           0.0000              RECHARGE     =           0.0000

               TOTAL OUT = 96476381184.0000                 TOTAL OUT =    32312450.0000

                IN - OUT =      -57344.0000                  IN - OUT =           2.0000

     PERCENT DISCREPANCY =          -0.00         PERCENT DISCREPANCY =           0.00






         TIME SUMMARY AT END OF TIME STEP   12 IN STRESS PERIOD   12
                    SECONDS     MINUTES      HOURS       DAYS        YEARS
                    -----------------------------------------------------------
   TIME STEP LENGTH 2.62800E+06  43800.      730.00      30.417     8.32763E-02
 STRESS PERIOD TIME 3.15360E+07 5.25600E+05  8760.0      365.00     0.99932    
         TOTAL TIME 3.78691E+08 6.31152E+06 1.05192E+05  4383.0      12.000    
1
1
                            STRESS PERIOD NO.   13, LENGTH =   366.0000    
                            -----------------------------------------------

                              NUMBER OF TIME STEPS =    12

                               MULTIPLIER FOR DELT =     1.000

                            INITIAL TIME STEP SIZE =   30.50000    

   1472 WELLS

 REUSING SURF FROM LAST STRESS PERIOD

 REUSING EVTR FROM LAST STRESS PERIOD

 REUSING EXDP FROM LAST STRESS PERIOD



                           RECHARGE
 READING ON UNIT   16 WITH FORMAT: (15F5.0)            


     63 TIME-VARIANT SPECIFIED-HEAD CELLS
 
 SOLVING FOR HEAD 
                                                   Max.-Head-Change                        Max.-Flux-Residual
  Residual-Control   Outer-Iter.   Inner-Iter.     Column Row Layer    Max.-Head-Change    Column Row Layer    Max.-Flux-Residual            L2-New               L2-Old           Solver-Max-Delh
          0                 1          12            92   77     2      -0.1350126576E+02      23   46    3      -0.3109441575E+06      0.8818863322E+06      0.2313498188E+03     -0.1350126576E+02
          0                 2          11            92   77     2       0.1670393586E+01      23   46    3       0.2322120433E+05      0.8613856326E+05      0.8818863322E+06      0.1670393586E+01
          0                 3           7            56   36     1       0.1137208564E+00      16   41    3       0.7466793404E+03      0.1355434466E+04      0.8613856326E+05      0.1137208564E+00
          0                 4           6            92   77     2       0.5084104294E-02      17   41    3      -0.5455331592E+02      0.6581555030E+02      0.1355434466E+04      0.5084104294E-02

    ------------------------------------------------
       NWT REQUIRED            4 OUTER ITERATIONS 
       AND A TOTAL OF         36 INNER ITERATIONS.
    ------------------------------------------------

 NO OUTPUT CONTROL FOR STRESS PERIOD   13   TIME STEP    1
 
 SOLVING FOR HEAD 
                                                   Max.-Head-Change                        Max.-Flux-Residual
  Residual-Control   Outer-Iter.   Inner-Iter.     Column Row Layer    Max.-Head-Change    Column Row Layer    Max.-Flux-Residual            L2-New               L2-Old           Solver-Max-Delh
          0                 1          11            23   46     2      -0.2820714753E+01      59  103    1      -0.7707394643E+05      0.5366291571E+06      0.6581555030E+02     -0.2820714753E+01
          0                 2          10            23   46     2       0.2467654920E+00      59  103    1       0.7430032830E+04      0.5381386338E+05      0.5366291571E+06      0.2467654920E+00
          0                 3           6            16   38     2       0.1392524794E-01      16   38    2       0.3111172365E+03      0.3728016735E+03      0.5381386338E+05      0.1392524794E-01
          0                 4           4            21   45     3      -0.5921724838E-04      21   45    3      -0.3084998190E+01      0.3369705860E+01      0.3728016735E+03     -0.5921724838E-04

    ------------------------------------------------
       NWT REQUIRED            4 OUTER ITERATIONS 
       AND A TOTAL OF         31 INNER ITERATIONS.
    ------------------------------------------------

 NO OUTPUT CONTROL FOR STRESS PERIOD   13   TIME STEP    2
 
 SOLVING FOR HEAD 
                                                   Max.-Head-Change                        Max.-Flux-Residual
  Residual-Control   Outer-Iter.   Inner-Iter.     Column Row Layer    Max.-Head-Change    Column Row Layer    Max.-Flux-Residual            L2-New               L2-Old           Solver-Max-Delh
          0                 1          11            23   46     2      -0.2069439023E+01      59  103    1      -0.4519772021E+05      0.4955647764E+06      0.3369705860E+01     -0.2069439023E+01
          0                 2          10            23   46     2       0.1834367270E+00      59  103    1       0.4424670569E+04      0.4990649126E+05      0.4955647764E+06      0.1834367270E+00
          0                 3           6            16   41     2       0.1007579356E-01      16   41    2       0.3191881618E+03      0.3801015777E+03      0.4990649126E+05      0.1007579356E-01
          0                 4           2            16   41     2       0.1021244839E-04      16   41    2       0.2333358675E+00      0.2950294496E+00      0.3801015777E+03      0.1021244839E-04

    ------------------------------------------------
       NWT REQUIRED            4 OUTER ITERATIONS 
       AND A TOTAL OF         29 INNER ITERATIONS.
    ------------------------------------------------

 NO OUTPUT CONTROL FOR STRESS PERIOD   13   TIME STEP    3
 
 SOLVING FOR HEAD 
                                                   Max.-Head-Change                        Max.-Flux-Residual
  Residual-Control   Outer-Iter.   Inner-Iter.     Column Row Layer    Max.-Head-Change    Column Row Layer    Max.-Flux-Residual            L2-New               L2-Old           Solver-Max-Delh
          0                 1          11            23   46     2      -0.1644940389E+01      23   46    2      -0.3021215151E+05      0.4788016262E+06      0.2950294496E+00     -0.1644940389E+01
          0                 2          10            18   47     3       0.2039018048E+00      18   47    3       0.9744508344E+04      0.4943368163E+05      0.4788016262E+06      0.2039018048E+00
          0                 3           6            18   47     2      -0.1460483260E-01      18   47    2      -0.7269830752E+03      0.1029951384E+04      0.4943368163E+05     -0.1460483260E-01
          0                 4           4            18   47     2      -0.1314857367E-02      18   47    2      -0.6543706495E+02      0.6544244501E+02      0.1029951384E+04     -0.1314857367E-02

    ------------------------------------------------
       NWT REQUIRED            4 OUTER ITERATIONS 
       AND A TOTAL OF         31 INNER ITERATIONS.
    ------------------------------------------------

 NO OUTPUT CONTROL FOR STRESS PERIOD   13   TIME STEP    4
 
 SOLVING FOR HEAD 
                                                   Max.-Head-Change                        Max.-Flux-Residual
  Residual-Control   Outer-Iter.   Inner-Iter.     Column Row Layer    Max.-Head-Change    Column Row Layer    Max.-Flux-Residual            L2-New               L2-Old           Solver-Max-Delh
          0                 1          11            23   46     2      -0.1387281961E+01      37   28    1      -0.2578175790E+05      0.4697820746E+06      0.6544244501E+02     -0.1387281961E+01
          0                 2          10            18   47     2      -0.3808403110E+00      18   47    2      -0.8551623502E+04      0.4820499283E+05      0.4697820746E+06     -0.3808403110E+00
          0                 3           7            18   47     2       0.3421931612E-01      18   47    2       0.8443966447E+03      0.1065215781E+04      0.4820499283E+05      0.3421931612E-01
          0                 4           2            18   47     2       0.3511534917E-04      18   47    2       0.7897521704E+00      0.1117580172E+01      0.1065215781E+04      0.3511534917E-04

    ------------------------------------------------
       NWT REQUIRED            4 OUTER ITERATIONS 
       AND A TOTAL OF         30 INNER ITERATIONS.
    ------------------------------------------------

 NO OUTPUT CONTROL FOR STRESS PERIOD   13   TIME STEP    5
 
 SOLVING FOR HEAD 
                                                   Max.-Head-Change                        Max.-Flux-Residual
  Residual-Control   Outer-Iter.   Inner-Iter.     Column Row Layer    Max.-Head-Change    Column Row Layer    Max.-Flux-Residual            L2-New               L2-Old           Solver-Max-Delh
          0                 1          11            23   46     2      -0.1216604991E+01      37   28    1      -0.2332980284E+05      0.4642401277E+06      0.1117580172E+01     -0.1216604991E+01
          0                 2          10            36   18     2      -0.1378592780E+01      19   24    2       0.1035146060E+05      0.4921549987E+05      0.4642401277E+06     -0.1378592780E+01
          0                 3           7            36   18     2       0.1124286668E+00      18   20    1      -0.2181171216E+04      0.2265207042E+04      0.4921549987E+05      0.1124286668E+00
          0                 4           5            18   20     1      -0.2413035009E-02      18   20    1      -0.1963390174E+03      0.1963732766E+03      0.2265207042E+04     -0.2413035009E-02

    ------------------------------------------------
       NWT REQUIRED            4 OUTER ITERATIONS 
       AND A TOTAL OF         33 INNER ITERATIONS.
    ------------------------------------------------

 NO OUTPUT CONTROL FOR STRESS PERIOD   13   TIME STEP    6
 
 SOLVING FOR HEAD 
                                                   Max.-Head-Change                        Max.-Flux-Residual
  Residual-Control   Outer-Iter.   Inner-Iter.     Column Row Layer    Max.-Head-Change    Column Row Layer    Max.-Flux-Residual            L2-New               L2-Old           Solver-Max-Delh
          0                 1          11            23   46     2      -0.1100308224E+01      36   27    1      -0.2225092239E+05      0.4598282893E+06      0.1963732766E+03     -0.1100308224E+01
          0                 2          10            18   20     1      -0.1956128439E+00      18   20    1      -0.7792344012E+04      0.4765053700E+05      0.4598282893E+06     -0.1956128439E+00
          0                 3           6            18   20     1       0.2157040671E-01      18   20    1       0.9592608546E+03      0.1179957258E+04      0.4765053700E+05      0.2157040671E-01
          0                 4           4            19   20     1      -0.1469775593E-03      19   20    1      -0.1507801764E+02      0.1581851595E+02      0.1179957258E+04     -0.1469775593E-03

    ------------------------------------------------
       NWT REQUIRED            4 OUTER ITERATIONS 
       AND A TOTAL OF         31 INNER ITERATIONS.
    ------------------------------------------------

 NO OUTPUT CONTROL FOR STRESS PERIOD   13   TIME STEP    7
 
 SOLVING FOR HEAD 
                                                   Max.-Head-Change                        Max.-Flux-Residual
  Residual-Control   Outer-Iter.   Inner-Iter.     Column Row Layer    Max.-Head-Change    Column Row Layer    Max.-Flux-Residual            L2-New               L2-Old           Solver-Max-Delh
          0                 1          11            23   46     2      -0.1015916296E+01      32   27    1      -0.2194086247E+05      0.4565509430E+06      0.1581851595E+02     -0.1015916296E+01
          0                 2          10            80   61     1      -0.3823330348E+00      16   42    2      -0.6016811133E+04      0.4651044566E+05      0.4565509430E+06     -0.3823330348E+00
          0                 3           6            16   33     2       0.3082115659E-01      16   42    2       0.5951815913E+03      0.8112134849E+03      0.4651044566E+05      0.3082115659E-01
          0                 4           3            80   61     1       0.5508469418E-03      80   61    1       0.8040725943E+00      0.1208065613E+01      0.8112134849E+03      0.5508469418E-03

    ------------------------------------------------
       NWT REQUIRED            4 OUTER ITERATIONS 
       AND A TOTAL OF         30 INNER ITERATIONS.
    ------------------------------------------------

 NO OUTPUT CONTROL FOR STRESS PERIOD   13   TIME STEP    8
 
 SOLVING FOR HEAD 
                                                   Max.-Head-Change                        Max.-Flux-Residual
  Residual-Control   Outer-Iter.   Inner-Iter.     Column Row Layer    Max.-Head-Change    Column Row Layer    Max.-Flux-Residual            L2-New               L2-Old           Solver-Max-Delh
          0                 1          11            23   46     2      -0.9515332625E+00      32   27    1      -0.2179893902E+05      0.4539131230E+06      0.1208065613E+01     -0.9515332625E+00
          0                 2          10            37   22     1      -0.4277755068E+00      37   22    1      -0.7591273335E+04      0.4665660138E+05      0.4539131230E+06     -0.4277755068E+00
          0                 3           6            37   22     1       0.3823532156E-01      49   34    1      -0.1140485841E+04      0.1471260068E+04      0.4665660138E+05      0.3823532156E-01
          0                 4           4            49   34     1      -0.1372226592E-02      49   34    1      -0.1026622838E+03      0.1026856519E+03      0.1471260068E+04     -0.1372226592E-02

    ------------------------------------------------
       NWT REQUIRED            4 OUTER ITERATIONS 
       AND A TOTAL OF         31 INNER ITERATIONS.
    ------------------------------------------------

 NO OUTPUT CONTROL FOR STRESS PERIOD   13   TIME STEP    9
 
 SOLVING FOR HEAD 
                                                   Max.-Head-Change                        Max.-Flux-Residual
  Residual-Control   Outer-Iter.   Inner-Iter.     Column Row Layer    Max.-Head-Change    Column Row Layer    Max.-Flux-Residual            L2-New               L2-Old           Solver-Max-Delh
          0                 1          11            23   46     2      -0.9006409169E+00      32   27    1      -0.2166851005E+05      0.4517295291E+06      0.1026856519E+03     -0.9006409169E+00
          0                 2          10            22   32     2       0.1248027522E+00      22   32    2       0.5059590890E+04      0.4567050392E+05      0.4517295291E+06      0.1248027522E+00
          0                 3           6            49   34     1       0.1117298692E-01      49   34    1       0.4498165552E+03      0.4720965852E+03      0.4567050392E+05      0.1117298692E-01
          0                 4           2            49   34     1       0.1030805790E-04      49   34    1       0.3702082485E+00      0.4005898196E+00      0.4720965852E+03      0.1030805790E-04

    ------------------------------------------------
       NWT REQUIRED            4 OUTER ITERATIONS 
       AND A TOTAL OF         29 INNER ITERATIONS.
    ------------------------------------------------

 NO OUTPUT CONTROL FOR STRESS PERIOD   13   TIME STEP   10
 
 SOLVING FOR HEAD 
                                                   Max.-Head-Change                        Max.-Flux-Residual
  Residual-Control   Outer-Iter.   Inner-Iter.     Column Row Layer    Max.-Head-Change    Column Row Layer    Max.-Flux-Residual            L2-New               L2-Old           Solver-Max-Delh
          0                 1          11            23   46     2      -0.8592136149E+00      32   27    1      -0.2154395956E+05      0.4498011448E+06      0.4005898196E+00     -0.8592136149E+00
          0                 2          10            24    7     1      -0.3188763471E+00      22   25    2       0.8996929347E+04      0.4637135448E+05      0.4498011448E+06     -0.3188763471E+00
          0                 3           7            22   25     1      -0.4454371132E-01      22   25    1      -0.3252898447E+04      0.3318242787E+04      0.4637135448E+05     -0.4454371132E-01
          0                 4           5            22   25     1      -0.4010812002E-02      22   25    1      -0.2928337044E+03      0.2928453165E+03      0.3318242787E+04     -0.4010812002E-02

    ------------------------------------------------
       NWT REQUIRED            4 OUTER ITERATIONS 
       AND A TOTAL OF         33 INNER ITERATIONS.
    ------------------------------------------------

 NO OUTPUT CONTROL FOR STRESS PERIOD   13   TIME STEP   11
 
 SOLVING FOR HEAD 
                                                   Max.-Head-Change                        Max.-Flux-Residual
  Residual-Control   Outer-Iter.   Inner-Iter.     Column Row Layer    Max.-Head-Change    Column Row Layer    Max.-Flux-Residual            L2-New               L2-Old           Solver-Max-Delh
          0                 1          11            23   46     2      -0.8247444014E+00      32   27    1      -0.2142185138E+05      0.4479125936E+06      0.2928453165E+03     -0.8247444014E+00
          0                 2          10            22   25     1      -0.2561955100E+00      22   25    1      -0.9022447488E+04      0.4627519292E+05      0.4479125936E+06     -0.2561955100E+00
          0                 3           6            22   25     1       0.2305597080E-01      22   25    1       0.8912073592E+03      0.9343140733E+03      0.4627519292E+05      0.2305597080E-01
          0                 4           2            22   25     1       0.2168526753E-04      22   25    1       0.7464080602E+00      0.7964844584E+00      0.9343140733E+03      0.2168526753E-04

    ------------------------------------------------
       NWT REQUIRED            4 OUTER ITERATIONS 
       AND A TOTAL OF         29 INNER ITERATIONS.
    ------------------------------------------------

 OUTPUT CONTROL FOR STRESS PERIOD   13   TIME STEP   12
    SAVE BUDGET
 UBDSV1 SAVING "         STORAGE" ON UNIT  39 AT TIME STEP 12, STRESS PERIOD  13
 UBDSV2 SAVING "   CONSTANT HEAD" ON UNIT  39 AT TIME STEP 12, STRESS PERIOD  13
 UBDSV1 SAVING "FLOW RIGHT FACE " ON UNIT  39 AT TIME STEP 12, STRESS PERIOD  13
 UBDSV1 SAVING "FLOW FRONT FACE " ON UNIT  39 AT TIME STEP 12, STRESS PERIOD  13
 UBDSV1 SAVING "FLOW LOWER FACE " ON UNIT  39 AT TIME STEP 12, STRESS PERIOD  13
 UBDSV4 SAVING "           WELLS" ON UNIT  39 AT TIME STEP 12, STRESS PERIOD  13
 UBDSV3 SAVING "              ET" ON UNIT  39 AT TIME STEP 12, STRESS PERIOD  13
 UBDSV3 SAVING "        RECHARGE" ON UNIT  39 AT TIME STEP 12, STRESS PERIOD  13
1
  VOLUMETRIC BUDGET FOR ENTIRE MODEL AT END OF TIME STEP   12, STRESS PERIOD  13
  ------------------------------------------------------------------------------

     CUMULATIVE VOLUMES      L**3       RATES FOR THIS TIME STEP      L**3/T
     ------------------                 ------------------------

           IN:                                      IN:
           ---                                      ---
             STORAGE     = 40860581888.0000               STORAGE     =    21502780.0000
       CONSTANT HEAD     =  5786648576.0000         CONSTANT HEAD     =     1441823.5000
               WELLS     =  5820573696.0000                 WELLS     =     1225642.0000
                  ET     =           0.0000                    ET     =           0.0000
            RECHARGE     = 57380708352.0000              RECHARGE     =    12220105.0000

                TOTAL IN =109848510464.0000                  TOTAL IN =    36390352.0000

          OUT:                                     OUT:
          ----                                     ----
             STORAGE     =  4272475136.0000               STORAGE     =      166460.8750
       CONSTANT HEAD     = 16302051328.0000         CONSTANT HEAD     =     3803759.7500
               WELLS     = 83666681856.0000                 WELLS     =    31639220.0000
                  ET     =  5607343616.0000                    ET     =      780913.5000
            RECHARGE     =           0.0000              RECHARGE     =           0.0000

               TOTAL OUT =109848551424.0000                 TOTAL OUT =    36390352.0000

                IN - OUT =      -40960.0000                  IN - OUT =           0.0000

     PERCENT DISCREPANCY =          -0.00         PERCENT DISCREPANCY =           0.00






         TIME SUMMARY AT END OF TIME STEP   12 IN STRESS PERIOD   13
                    SECONDS     MINUTES      HOURS       DAYS        YEARS
                    -----------------------------------------------------------
   TIME STEP LENGTH 2.63520E+06  43920.      732.00      30.500     8.35044E-02
 STRESS PERIOD TIME 3.16224E+07 5.27040E+05  8784.0      366.00      1.0021    
         TOTAL TIME 4.10314E+08 6.83856E+06 1.13976E+05  4749.0      13.002    
1
1
                            STRESS PERIOD NO.   14, LENGTH =   365.0000    
                            -----------------------------------------------

                              NUMBER OF TIME STEPS =    12

                               MULTIPLIER FOR DELT =     1.000

                            INITIAL TIME STEP SIZE =   30.41667    

   1546 WELLS

 REUSING SURF FROM LAST STRESS PERIOD

 REUSING EVTR FROM LAST STRESS PERIOD

 REUSING EXDP FROM LAST STRESS PERIOD



                           RECHARGE
 READING ON UNIT   16 WITH FORMAT: (15F5.0)            


     63 TIME-VARIANT SPECIFIED-HEAD CELLS
 
 SOLVING FOR HEAD 
                                                   Max.-Head-Change                        Max.-Flux-Residual
  Residual-Control   Outer-Iter.   Inner-Iter.     Column Row Layer    Max.-Head-Change    Column Row Layer    Max.-Flux-Residual            L2-New               L2-Old           Solver-Max-Delh
          0                 1          12            92   77     2      -0.1484996375E+02      63   95    1      -0.1498648994E+06      0.7036908216E+06      0.7964844584E+00     -0.1484996375E+02
          0                 2          10            32   62     2       0.1129071069E+01      32   62    2       0.6077881330E+05      0.9245497729E+05      0.7036908216E+06      0.1129071069E+01
          0                 3           7            32   61     2       0.7981250062E-01      32   61    2       0.2303336204E+04      0.2405740210E+04      0.9245497729E+05      0.7981250062E-01
          0                 4           4            92   77     2       0.1443009468E-02      32   61    2      -0.1591484987E+02      0.2267146538E+02      0.2405740210E+04      0.1443009468E-02

    ------------------------------------------------
       NWT REQUIRED            4 OUTER ITERATIONS 
       AND A TOTAL OF         33 INNER ITERATIONS.
    ------------------------------------------------

 NO OUTPUT CONTROL FOR STRESS PERIOD   14   TIME STEP    1
 
 SOLVING FOR HEAD 
                                                   Max.-Head-Change                        Max.-Flux-Residual
  Residual-Control   Outer-Iter.   Inner-Iter.     Column Row Layer    Max.-Head-Change    Column Row Layer    Max.-Flux-Residual            L2-New               L2-Old           Solver-Max-Delh
          0                 1          11            72   48     3      -0.3121771496E+01      81   45    1      -0.7392777844E+05      0.5428097646E+06      0.2267146538E+02     -0.3121771496E+01
          0                 2          10            72   48     3       0.2837942256E+00      32   61    2       0.9430824423E+04      0.5516164796E+05      0.5428097646E+06      0.2837942256E+00
          0                 3           6            32   62     1       0.1314286217E-01      32   62    2      -0.2589846391E+03      0.3699364290E+03      0.5516164796E+05      0.1314286217E-01
          0                 4           2            92   77     2       0.2888495409E-04      32   61    2      -0.1863572240E+01      0.2031135015E+01      0.3699364290E+03      0.2888495409E-04

    ------------------------------------------------
       NWT REQUIRED            4 OUTER ITERATIONS 
       AND A TOTAL OF         29 INNER ITERATIONS.
    ------------------------------------------------

 NO OUTPUT CONTROL FOR STRESS PERIOD   14   TIME STEP    2
 
 SOLVING FOR HEAD 
                                                   Max.-Head-Change                        Max.-Flux-Residual
  Residual-Control   Outer-Iter.   Inner-Iter.     Column Row Layer    Max.-Head-Change    Column Row Layer    Max.-Flux-Residual            L2-New               L2-Old           Solver-Max-Delh
          0                 1          11            32   62     1      -0.2918302842E+01      81   46    1      -0.7050485167E+05      0.5054019703E+06      0.2031135015E+01     -0.2918302842E+01
          0                 2          10            32   62     1       0.2571690050E+00      81   46    1       0.7042960804E+04      0.5074403970E+05      0.5054019703E+06      0.2571690050E+00
          0                 3           6            31   37     1       0.5940384222E-03      32   62    1       0.6901839495E+01      0.2289602518E+02      0.5074403970E+05      0.5940384222E-03

    ------------------------------------------------
       NWT REQUIRED            3 OUTER ITERATIONS 
       AND A TOTAL OF         27 INNER ITERATIONS.
    ------------------------------------------------

 NO OUTPUT CONTROL FOR STRESS PERIOD   14   TIME STEP    3
 
 SOLVING FOR HEAD 
                                                   Max.-Head-Change                        Max.-Flux-Residual
  Residual-Control   Outer-Iter.   Inner-Iter.     Column Row Layer    Max.-Head-Change    Column Row Layer    Max.-Flux-Residual            L2-New               L2-Old           Solver-Max-Delh
          0                 1          11            81   46     1      -0.2121787943E+01      81   46    1      -0.6839993848E+05      0.4884353164E+06      0.2289602518E+02     -0.2121787943E+01
          0                 2          10            32   61     1      -0.7448708071E+00      32   61    1      -0.9277384902E+04      0.4968617526E+05      0.4884353164E+06     -0.7448708071E+00
          0                 3           6            32   61     1       0.6991790536E-01      32   61    1       0.9725243945E+03      0.1003473562E+04      0.4968617526E+05      0.6991790536E-01
          0                 4           3            32   61     1       0.1491653544E-03      33   61    1      -0.4379690535E+01      0.5083638616E+01      0.1003473562E+04      0.1491653544E-03

    ------------------------------------------------
       NWT REQUIRED            4 OUTER ITERATIONS 
       AND A TOTAL OF         30 INNER ITERATIONS.
    ------------------------------------------------

 NO OUTPUT CONTROL FOR STRESS PERIOD   14   TIME STEP    4
 
 SOLVING FOR HEAD 
                                                   Max.-Head-Change                        Max.-Flux-Residual
  Residual-Control   Outer-Iter.   Inner-Iter.     Column Row Layer    Max.-Head-Change    Column Row Layer    Max.-Flux-Residual            L2-New               L2-Old           Solver-Max-Delh
          0                 1          11            81   46     1      -0.2057229384E+01      81   46    1      -0.6633876378E+05      0.4778330393E+06      0.5083638616E+01     -0.2057229384E+01
          0                 2          10            38   33     2       0.1910276637E+00      81   46    1       0.6626777694E+04      0.4811427003E+05      0.4778330393E+06      0.1910276637E+00
          0                 3           6            35   21     2       0.9759368507E-02      35   21    2       0.3546308628E+03      0.3554711319E+03      0.4811427003E+05      0.9759368507E-02

    ------------------------------------------------
       NWT REQUIRED            3 OUTER ITERATIONS 
       AND A TOTAL OF         27 INNER ITERATIONS.
    ------------------------------------------------

 NO OUTPUT CONTROL FOR STRESS PERIOD   14   TIME STEP    5
 
 SOLVING FOR HEAD 
                                                   Max.-Head-Change                        Max.-Flux-Residual
  Residual-Control   Outer-Iter.   Inner-Iter.     Column Row Layer    Max.-Head-Change    Column Row Layer    Max.-Flux-Residual            L2-New               L2-Old           Solver-Max-Delh
          0                 1          11            81   46     1      -0.1994049894E+01      81   46    1      -0.6431947892E+05      0.4705940485E+06      0.3554711319E+03     -0.1994049894E+01
          0                 2          10            60   41     1      -0.7217237828E+00      81   46    1       0.1198827226E+05      0.4962521351E+05      0.4705940485E+06     -0.7217237828E+00
          0                 3           7            60   41     1       0.6195632394E-01      15   28    2      -0.1918948702E+04      0.1970652680E+04      0.4962521351E+05      0.6195632394E-01
          0                 4           5            15   28     2      -0.2879796145E-02      15   28    2      -0.1727475195E+03      0.1727615514E+03      0.1970652680E+04     -0.2879796145E-02

    ------------------------------------------------
       NWT REQUIRED            4 OUTER ITERATIONS 
       AND A TOTAL OF         33 INNER ITERATIONS.
    ------------------------------------------------

 NO OUTPUT CONTROL FOR STRESS PERIOD   14   TIME STEP    6
 
 SOLVING FOR HEAD 
                                                   Max.-Head-Change                        Max.-Flux-Residual
  Residual-Control   Outer-Iter.   Inner-Iter.     Column Row Layer    Max.-Head-Change    Column Row Layer    Max.-Flux-Residual            L2-New               L2-Old           Solver-Max-Delh
          0                 1          11            81   46     1      -0.1651969765E+01      81   46    1      -0.5792995829E+05      0.4646263987E+06      0.1727615514E+03     -0.1651969765E+01
          0                 2          10            15   28     2      -0.2411153693E+00      15   28    2      -0.6544617742E+04      0.4742253246E+05      0.4646263987E+06     -0.2411153693E+00
          0                 3           6            15   28     2       0.2166200410E-01      15   28    2       0.6477896288E+03      0.8176964039E+03      0.4742253246E+05      0.2166200410E-01
          0                 4           3            15   28     2       0.2210953215E-04      15   28    2       0.5991737843E+00      0.7527044656E+00      0.8176964039E+03      0.2210953215E-04

    ------------------------------------------------
       NWT REQUIRED            4 OUTER ITERATIONS 
       AND A TOTAL OF         30 INNER ITERATIONS.
    ------------------------------------------------

 NO OUTPUT CONTROL FOR STRESS PERIOD   14   TIME STEP    7
 
 SOLVING FOR HEAD 
                                                   Max.-Head-Change                        Max.-Flux-Residual
  Residual-Control   Outer-Iter.   Inner-Iter.     Column Row Layer    Max.-Head-Change    Column Row Layer    Max.-Flux-Residual            L2-New               L2-Old           Solver-Max-Delh
          0                 1          11            81   46     1      -0.1473393255E+01      81   46    1      -0.5164666825E+05      0.4600991575E+06      0.7527044656E+00     -0.1473393255E+01
          0                 2          10            31   36     1      -0.9136170319E+00      33   63    2       0.6470467235E+04      0.4667639009E+05      0.4600991575E+06     -0.9136170319E+00
          0                 3           6            31   36     1       0.7835455808E-01      31   36    1       0.4369930122E+03      0.4748979091E+03      0.4667639009E+05      0.7835455808E-01
          0                 4           2            31   36     1       0.4113263346E-03      24    6    1      -0.5064237300E+01      0.5575784284E+01      0.4748979091E+03      0.4113263346E-03

    ------------------------------------------------
       NWT REQUIRED            4 OUTER ITERATIONS 
       AND A TOTAL OF         29 INNER ITERATIONS.
    ------------------------------------------------

 NO OUTPUT CONTROL FOR STRESS PERIOD   14   TIME STEP    8
 
 SOLVING FOR HEAD 
                                                   Max.-Head-Change                        Max.-Flux-Residual
  Residual-Control   Outer-Iter.   Inner-Iter.     Column Row Layer    Max.-Head-Change    Column Row Layer    Max.-Flux-Residual            L2-New               L2-Old           Solver-Max-Delh
          0                 1          11            31   36     1      -0.2300550521E+01      81   46    1      -0.4606297147E+05      0.4565887482E+06      0.5575784284E+01     -0.2300550521E+01
          0                 2          10            24    6     1      -0.2683154038E+00      81   46    1       0.4603484220E+04      0.4576295864E+05      0.4565887482E+06     -0.2683154038E+00
          0                 3           6            24    6     1       0.2380944542E-01      24    6    1       0.3201665150E+03      0.3991082694E+03      0.4576295864E+05      0.2380944542E-01
          0                 4           2            24    6     1       0.5170812963E-04      24    6    1       0.6607090048E+00      0.6821219124E+00      0.3991082694E+03      0.5170812963E-04

    ------------------------------------------------
       NWT REQUIRED            4 OUTER ITERATIONS 
       AND A TOTAL OF         29 INNER ITERATIONS.
    ------------------------------------------------

 NO OUTPUT CONTROL FOR STRESS PERIOD   14   TIME STEP    9
 
 SOLVING FOR HEAD 
                                                   Max.-Head-Change                        Max.-Flux-Residual
  Residual-Control   Outer-Iter.   Inner-Iter.     Column Row Layer    Max.-Head-Change    Column Row Layer    Max.-Flux-Residual            L2-New               L2-Old           Solver-Max-Delh
          0                 1          11            81   46     1      -0.1173469947E+01      81   46    1      -0.4109926670E+05      0.4538282479E+06      0.6821219124E+00     -0.1173469947E+01
          0                 2          10            33   63     1      -0.3231313271E+00      30   38    2       0.6755866369E+04      0.4646488781E+05      0.4538282479E+06     -0.3231313271E+00
          0                 3           6            33   63     1       0.2865990679E-01      33   63    1       0.3848477156E+03      0.4140432923E+03      0.4646488781E+05      0.2865990679E-01
          0                 4           3            30   38     1      -0.2090813030E-03      30   38    1      -0.1017782488E+02      0.1021209989E+02      0.4140432923E+03     -0.2090813030E-03

    ------------------------------------------------
       NWT REQUIRED            4 OUTER ITERATIONS 
       AND A TOTAL OF         30 INNER ITERATIONS.
    ------------------------------------------------

 NO OUTPUT CONTROL FOR STRESS PERIOD   14   TIME STEP   10
 
 SOLVING FOR HEAD 
                                                   Max.-Head-Change                        Max.-Flux-Residual
  Residual-Control   Outer-Iter.   Inner-Iter.     Column Row Layer    Max.-Head-Change    Column Row Layer    Max.-Flux-Residual            L2-New               L2-Old           Solver-Max-Delh
          0                 1          11            81   46     1      -0.1047901158E+01      81   46    1      -0.3668541333E+05      0.4513374763E+06      0.1021209989E+02     -0.1047901158E+01
          0                 2          10            30   38     1      -0.4552522903E+00      30   38    1      -0.7225747189E+04      0.4619177733E+05      0.4513374763E+06     -0.4552522903E+00
          0                 3           6            30   38     1       0.4055925342E-01      30   38    1       0.7098147989E+03      0.1004421418E+04      0.4619177733E+05      0.4055925342E-01
          0                 4           3            30   38     1       0.6865881840E-04      30   38    1       0.1135409191E+01      0.1399140194E+01      0.1004421418E+04      0.6865881840E-04

    ------------------------------------------------
       NWT REQUIRED            4 OUTER ITERATIONS 
       AND A TOTAL OF         30 INNER ITERATIONS.
    ------------------------------------------------

 NO OUTPUT CONTROL FOR STRESS PERIOD   14   TIME STEP   11
 
 SOLVING FOR HEAD 
                                                   Max.-Head-Change                        Max.-Flux-Residual
  Residual-Control   Outer-Iter.   Inner-Iter.     Column Row Layer    Max.-Head-Change    Column Row Layer    Max.-Flux-Residual            L2-New               L2-Old           Solver-Max-Delh
          0                 1          11            81   46     1      -0.9361833130E+00      81   46    1      -0.3275946488E+05      0.4494006369E+06      0.1399140194E+01     -0.9361833130E+00
          0                 2          10            52  113     2      -0.2814991243E+00      39   30    2       0.8690696139E+04      0.4595391225E+05      0.4494006369E+06     -0.2814991243E+00
          0                 3           6            33   59     1       0.2505170438E-01      33   59    1       0.3920998244E+03      0.4299342733E+03      0.4595391225E+05      0.2505170438E-01
          0                 4           2            52  113     2       0.1275267006E-03      33   59    1       0.6930369213E+00      0.9949774714E+00      0.4299342733E+03      0.1275267006E-03

    ------------------------------------------------
       NWT REQUIRED            4 OUTER ITERATIONS 
       AND A TOTAL OF         29 INNER ITERATIONS.
    ------------------------------------------------

 OUTPUT CONTROL FOR STRESS PERIOD   14   TIME STEP   12
    SAVE BUDGET
 UBDSV1 SAVING "         STORAGE" ON UNIT  39 AT TIME STEP 12, STRESS PERIOD  14
 UBDSV2 SAVING "   CONSTANT HEAD" ON UNIT  39 AT TIME STEP 12, STRESS PERIOD  14
 UBDSV1 SAVING "FLOW RIGHT FACE " ON UNIT  39 AT TIME STEP 12, STRESS PERIOD  14
 UBDSV1 SAVING "FLOW FRONT FACE " ON UNIT  39 AT TIME STEP 12, STRESS PERIOD  14
 UBDSV1 SAVING "FLOW LOWER FACE " ON UNIT  39 AT TIME STEP 12, STRESS PERIOD  14
 UBDSV4 SAVING "           WELLS" ON UNIT  39 AT TIME STEP 12, STRESS PERIOD  14
 UBDSV3 SAVING "              ET" ON UNIT  39 AT TIME STEP 12, STRESS PERIOD  14
 UBDSV3 SAVING "        RECHARGE" ON UNIT  39 AT TIME STEP 12, STRESS PERIOD  14
1
  VOLUMETRIC BUDGET FOR ENTIRE MODEL AT END OF TIME STEP   12, STRESS PERIOD  14
  ------------------------------------------------------------------------------

     CUMULATIVE VOLUMES      L**3       RATES FOR THIS TIME STEP      L**3/T
     ------------------                 ------------------------

           IN:                                      IN:
           ---                                      ---
             STORAGE     = 49317457920.0000               STORAGE     =    22936908.0000
       CONSTANT HEAD     =  6320455680.0000         CONSTANT HEAD     =     1462008.5000
               WELLS     =  6267930624.0000                 WELLS     =     1225642.0000
                  ET     =           0.0000                    ET     =           0.0000
            RECHARGE     = 61655310336.0000              RECHARGE     =    11711238.0000

                TOTAL IN =123561156608.0000                  TOTAL IN =    37335796.0000

          OUT:                                     OUT:
          ----                                     ----
             STORAGE     =  4325923328.0000               STORAGE     =       17270.2773
       CONSTANT HEAD     = 17703243776.0000         CONSTANT HEAD     =     3860883.2500
               WELLS     = 95737036800.0000                 WELLS     =    33069540.0000
                  ET     =  5794965504.0000                    ET     =      388105.0938
            RECHARGE     =           0.0000              RECHARGE     =           0.0000

               TOTAL OUT =123561164800.0000                 TOTAL OUT =    37335796.0000

                IN - OUT =       -8192.0000                  IN - OUT =           0.0000

     PERCENT DISCREPANCY =          -0.00         PERCENT DISCREPANCY =           0.00






         TIME SUMMARY AT END OF TIME STEP   12 IN STRESS PERIOD   14
                    SECONDS     MINUTES      HOURS       DAYS        YEARS
                    -----------------------------------------------------------
   TIME STEP LENGTH 2.62800E+06  43800.      730.00      30.417     8.32763E-02
 STRESS PERIOD TIME 3.15360E+07 5.25600E+05  8760.0      365.00     0.99932    
         TOTAL TIME 4.41850E+08 7.36416E+06 1.22736E+05  5114.0      14.001    
1
1
                            STRESS PERIOD NO.   15, LENGTH =   365.0000    
                            -----------------------------------------------

                              NUMBER OF TIME STEPS =    12

                               MULTIPLIER FOR DELT =     1.000

                            INITIAL TIME STEP SIZE =   30.41667    

   1626 WELLS

 REUSING SURF FROM LAST STRESS PERIOD

 REUSING EVTR FROM LAST STRESS PERIOD

 REUSING EXDP FROM LAST STRESS PERIOD



                           RECHARGE
 READING ON UNIT   16 WITH FORMAT: (15F5.0)            


     63 TIME-VARIANT SPECIFIED-HEAD CELLS
 
 SOLVING FOR HEAD 
                                                   Max.-Head-Change                        Max.-Flux-Residual
  Residual-Control   Outer-Iter.   Inner-Iter.     Column Row Layer    Max.-Head-Change    Column Row Layer    Max.-Flux-Residual            L2-New               L2-Old           Solver-Max-Delh
          0                 1          11            65    2     2       0.2190448641E+02      24   22    1       0.1165058313E+06      0.7731023392E+06      0.9949774714E+00      0.2190448641E+02
          0                 2          10            65    2     2      -0.7442212179E+00      24   22    1      -0.1207113758E+05      0.7831162942E+05      0.7731023392E+06     -0.7442212179E+00
          0                 3           6            65    2     2      -0.4271842460E-01      61   83    2      -0.1092403684E+03      0.1762294571E+03      0.7831162942E+05     -0.4271842460E-01
          0                 4           2            65    2     2      -0.2447452827E-02      65    2    2      -0.1084942884E+01      0.2472660949E+01      0.1762294571E+03     -0.2447452827E-02

    ------------------------------------------------
       NWT REQUIRED            4 OUTER ITERATIONS 
       AND A TOTAL OF         29 INNER ITERATIONS.
    ------------------------------------------------

 NO OUTPUT CONTROL FOR STRESS PERIOD   15   TIME STEP    1
 
 SOLVING FOR HEAD 
                                                   Max.-Head-Change                        Max.-Flux-Residual
  Residual-Control   Outer-Iter.   Inner-Iter.     Column Row Layer    Max.-Head-Change    Column Row Layer    Max.-Flux-Residual            L2-New               L2-Old           Solver-Max-Delh
          0                 1          11            81   45     1       0.2693210583E+01      81   45    1       0.8347869958E+05      0.5548935139E+06      0.2472660949E+01      0.2693210583E+01
          0                 2          10            81   45     1      -0.2448143019E+00      81   45    1      -0.8357339371E+04      0.5668478936E+05      0.5548935139E+06     -0.2448143019E+00
          0                 3           6            39   30     1       0.8837534473E-02      39   30    1       0.3261008454E+03      0.3814576259E+03      0.5668478936E+05      0.8837534473E-02

    ------------------------------------------------
       NWT REQUIRED            3 OUTER ITERATIONS 
       AND A TOTAL OF         27 INNER ITERATIONS.
    ------------------------------------------------

 NO OUTPUT CONTROL FOR STRESS PERIOD   15   TIME STEP    2
 
 SOLVING FOR HEAD 
                                                   Max.-Head-Change                        Max.-Flux-Residual
  Residual-Control   Outer-Iter.   Inner-Iter.     Column Row Layer    Max.-Head-Change    Column Row Layer    Max.-Flux-Residual            L2-New               L2-Old           Solver-Max-Delh
          0                 1          11            81   45     1       0.2355035332E+01      81   45    1       0.7295936961E+05      0.4815866763E+06      0.3814576259E+03      0.2355035332E+01
          0                 2          10            81   45     1      -0.2163359284E+00      17   43    3       0.7722518472E+04      0.4993840193E+05      0.4815866763E+06     -0.2163359284E+00
          0                 3           6            75   94     1       0.7255622375E-02      86   51    1      -0.6415908819E+02      0.7630601796E+02      0.4993840193E+05      0.7255622375E-02

    ------------------------------------------------
       NWT REQUIRED            3 OUTER ITERATIONS 
       AND A TOTAL OF         27 INNER ITERATIONS.
    ------------------------------------------------

 NO OUTPUT CONTROL FOR STRESS PERIOD   15   TIME STEP    3
 
 SOLVING FOR HEAD 
                                                   Max.-Head-Change                        Max.-Flux-Residual
  Residual-Control   Outer-Iter.   Inner-Iter.     Column Row Layer    Max.-Head-Change    Column Row Layer    Max.-Flux-Residual            L2-New               L2-Old           Solver-Max-Delh
          0                 1          11            81   45     1       0.2056027226E+01      81   45    1       0.6373686969E+05      0.4448131759E+06      0.7630601796E+02      0.2056027226E+01
          0                 2          10            17   43     2      -0.2434454355E+00      28   41    2       0.7022674556E+04      0.4569791811E+05      0.4448131759E+06     -0.2434454355E+00
          0                 3           6            17   43     2       0.2181736159E-01      17   43    2       0.4405262496E+03      0.5354001325E+03      0.4569791811E+05      0.2181736159E-01
          0                 4           4            23   29     1      -0.2430409071E-03      23   29    1      -0.1302894456E+02      0.1304739634E+02      0.5354001325E+03     -0.2430409071E-03

    ------------------------------------------------
       NWT REQUIRED            4 OUTER ITERATIONS 
       AND A TOTAL OF         31 INNER ITERATIONS.
    ------------------------------------------------

 NO OUTPUT CONTROL FOR STRESS PERIOD   15   TIME STEP    4
 
 SOLVING FOR HEAD 
                                                   Max.-Head-Change                        Max.-Flux-Residual
  Residual-Control   Outer-Iter.   Inner-Iter.     Column Row Layer    Max.-Head-Change    Column Row Layer    Max.-Flux-Residual            L2-New               L2-Old           Solver-Max-Delh
          0                 1          11            81   45     1       0.1797517944E+01      81   45    1       0.5569830723E+05      0.4216017388E+06      0.1304739634E+02      0.1797517944E+01
          0                 2          10            23   29     1      -0.5649369002E+00      23   29    1      -0.1175447911E+05      0.4413671557E+05      0.4216017388E+06     -0.5649369002E+00
          0                 3           6            23   29     1       0.5063958743E-01      23   29    1       0.1158734785E+04      0.1329147201E+04      0.4413671557E+05      0.5063958743E-01
          0                 4           4            34   21     1      -0.7924023751E-03      34   21    1      -0.4217243672E+02      0.4221207665E+02      0.1329147201E+04     -0.7924023751E-03

    ------------------------------------------------
       NWT REQUIRED            4 OUTER ITERATIONS 
       AND A TOTAL OF         31 INNER ITERATIONS.
    ------------------------------------------------

 NO OUTPUT CONTROL FOR STRESS PERIOD   15   TIME STEP    5
 
 SOLVING FOR HEAD 
                                                   Max.-Head-Change                        Max.-Flux-Residual
  Residual-Control   Outer-Iter.   Inner-Iter.     Column Row Layer    Max.-Head-Change    Column Row Layer    Max.-Flux-Residual            L2-New               L2-Old           Solver-Max-Delh
          0                 1          11            38   33     1      -0.2221355657E+01      81   45    1       0.4870173407E+05      0.4058640356E+06      0.4221207665E+02     -0.2221355657E+01
          0                 2          10            34   21     1      -0.2744288796E+00      34   21    1      -0.5570641522E+04      0.4137258932E+05      0.4058640356E+06     -0.2744288796E+00
          0                 3           6            34   21     1       0.2458079073E-01      34   21    1       0.5490206167E+03      0.8024706361E+03      0.4137258932E+05      0.2458079073E-01
          0                 4           3            34   21     1       0.3304461404E-04      34   21    1       0.6838561073E+00      0.1079726668E+01      0.8024706361E+03      0.3304461404E-04

    ------------------------------------------------
       NWT REQUIRED            4 OUTER ITERATIONS 
       AND A TOTAL OF         30 INNER ITERATIONS.
    ------------------------------------------------

 NO OUTPUT CONTROL FOR STRESS PERIOD   15   TIME STEP    6
 
 SOLVING FOR HEAD 
                                                   Max.-Head-Change                        Max.-Flux-Residual
  Residual-Control   Outer-Iter.   Inner-Iter.     Column Row Layer    Max.-Head-Change    Column Row Layer    Max.-Flux-Residual            L2-New               L2-Old           Solver-Max-Delh
          0                 1          11            81   46     1       0.1450453177E+01      81   46    1       0.4666389496E+05      0.3943359752E+06      0.1079726668E+01      0.1450453177E+01
          0                 2          10            23    3     1      -0.1356020255E+00      81   46    1      -0.4669620350E+04      0.3956717147E+05      0.3943359752E+06     -0.1356020255E+00
          0                 3           6            23    3     1       0.1196162654E-01      23    3    1       0.1343084968E+03      0.1442642765E+03      0.3956717147E+05      0.1196162654E-01
          0                 4           2            23    3     1       0.3240397559E-04      23    3    1       0.3314496502E+00      0.3463716063E+00      0.1442642765E+03      0.3240397559E-04

    ------------------------------------------------
       NWT REQUIRED            4 OUTER ITERATIONS 
       AND A TOTAL OF         29 INNER ITERATIONS.
    ------------------------------------------------

 NO OUTPUT CONTROL FOR STRESS PERIOD   15   TIME STEP    7
 
 SOLVING FOR HEAD 
                                                   Max.-Head-Change                        Max.-Flux-Residual
  Residual-Control   Outer-Iter.   Inner-Iter.     Column Row Layer    Max.-Head-Change    Column Row Layer    Max.-Flux-Residual            L2-New               L2-Old           Solver-Max-Delh
          0                 1          11            81   46     1       0.1408304649E+01      81   46    1       0.4534286606E+05      0.3855406367E+06      0.3463716063E+00      0.1408304649E+01
          0                 2          10            65  108     1      -0.2406110986E+00      81   46    1      -0.4537456881E+04      0.3875991734E+05      0.3855406367E+06     -0.2406110986E+00
          0                 3           5            65  108     1       0.2064080452E-01      78   48    1      -0.1209046949E+03      0.1581991435E+03      0.3875991734E+05      0.2064080452E-01
          0                 4           2            65  108     1       0.1057684841E-03      66    8    3       0.7608655766E+00      0.9043743779E+00      0.1581991435E+03      0.1057684841E-03

    ------------------------------------------------
       NWT REQUIRED            4 OUTER ITERATIONS 
       AND A TOTAL OF         28 INNER ITERATIONS.
    ------------------------------------------------

 NO OUTPUT CONTROL FOR STRESS PERIOD   15   TIME STEP    8
 
 SOLVING FOR HEAD 
                                                   Max.-Head-Change                        Max.-Flux-Residual
  Residual-Control   Outer-Iter.   Inner-Iter.     Column Row Layer    Max.-Head-Change    Column Row Layer    Max.-Flux-Residual            L2-New               L2-Old           Solver-Max-Delh
          0                 1          11            81   46     1       0.1366450308E+01      81   46    1       0.4402560359E+05      0.3784985883E+06      0.9043743779E+00      0.1366450308E+01
          0                 2          10            81   46     1      -0.1242927237E+00      81   46    1      -0.4405630201E+04      0.3794985218E+05      0.3784985883E+06     -0.1242927237E+00
          0                 3           6            25   11     1       0.6139583099E-02      25   11    1       0.1219479679E+03      0.1757452381E+03      0.3794985218E+05      0.6139583099E-02

    ------------------------------------------------
       NWT REQUIRED            3 OUTER ITERATIONS 
       AND A TOTAL OF         27 INNER ITERATIONS.
    ------------------------------------------------

 NO OUTPUT CONTROL FOR STRESS PERIOD   15   TIME STEP    9
 
 SOLVING FOR HEAD 
                                                   Max.-Head-Change                        Max.-Flux-Residual
  Residual-Control   Outer-Iter.   Inner-Iter.     Column Row Layer    Max.-Head-Change    Column Row Layer    Max.-Flux-Residual            L2-New               L2-Old           Solver-Max-Delh
          0                 1          11            81   46     1       0.1325035207E+01      81   46    1       0.4271753115E+05      0.3726916871E+06      0.1757452381E+03      0.1325035207E+01
          0                 2          10            16   36     2      -0.6584815808E+00      16   36    2      -0.7181897186E+04      0.3829767369E+05      0.3726916871E+06     -0.6584815808E+00
          0                 3           6            16   36     2       0.6167432968E-01      16   36    2       0.7511753611E+03      0.8039447525E+03      0.3829767369E+05      0.6167432968E-01
          0                 4           3            16   36     2       0.1134847046E-03      17   36    2      -0.3125728149E+01      0.3550170088E+01      0.8039447525E+03      0.1134847046E-03

    ------------------------------------------------
       NWT REQUIRED            4 OUTER ITERATIONS 
       AND A TOTAL OF         30 INNER ITERATIONS.
    ------------------------------------------------

 NO OUTPUT CONTROL FOR STRESS PERIOD   15   TIME STEP   10
 
 SOLVING FOR HEAD 
                                                   Max.-Head-Change                        Max.-Flux-Residual
  Residual-Control   Outer-Iter.   Inner-Iter.     Column Row Layer    Max.-Head-Change    Column Row Layer    Max.-Flux-Residual            L2-New               L2-Old           Solver-Max-Delh
          0                 1          11            81   46     1       0.1284183936E+01      81   46    1       0.4142320172E+05      0.3679736582E+06      0.3550170088E+01      0.1284183936E+01
          0                 2          10            81   46     1      -0.1172221538E+00      19   23    2       0.5999968910E+04      0.3735032934E+05      0.3679736582E+06     -0.1172221538E+00
          0                 3           6            58   97     2      -0.6886493821E-01      58   97    2      -0.2617619124E+04      0.2618173068E+04      0.3735032934E+05     -0.6886493821E-01
          0                 4           3            58   97     2      -0.6202887243E-02      58   97    2      -0.2357245856E+03      0.2357319522E+03      0.2618173068E+04     -0.6202887243E-02

    ------------------------------------------------
       NWT REQUIRED            4 OUTER ITERATIONS 
       AND A TOTAL OF         30 INNER ITERATIONS.
    ------------------------------------------------

 NO OUTPUT CONTROL FOR STRESS PERIOD   15   TIME STEP   11
 
 SOLVING FOR HEAD 
                                                   Max.-Head-Change                        Max.-Flux-Residual
  Residual-Control   Outer-Iter.   Inner-Iter.     Column Row Layer    Max.-Head-Change    Column Row Layer    Max.-Flux-Residual            L2-New               L2-Old           Solver-Max-Delh
          0                 1          11            81   46     1       0.1243238696E+01      81   46    1       0.4013219089E+05      0.3640517150E+06      0.2357319522E+03      0.1243238696E+01
          0                 2          10            58   97     2      -0.8927073470E+00      33   19    2       0.7174530079E+04      0.3783846686E+05      0.3640517150E+06     -0.8927073470E+00
          0                 3           7            33   19     1      -0.1067276208E+00      33   19    1      -0.5297878528E+04      0.5340036650E+04      0.3783846686E+05     -0.1067276208E+00
          0                 4           5            33   19     1      -0.9612507853E-02      33   19    1      -0.4770526271E+03      0.4770676343E+03      0.5340036650E+04     -0.9612507853E-02

    ------------------------------------------------
       NWT REQUIRED            4 OUTER ITERATIONS 
       AND A TOTAL OF         33 INNER ITERATIONS.
    ------------------------------------------------

 OUTPUT CONTROL FOR STRESS PERIOD   15   TIME STEP   12
    SAVE BUDGET
 UBDSV1 SAVING "         STORAGE" ON UNIT  39 AT TIME STEP 12, STRESS PERIOD  15
 UBDSV2 SAVING "   CONSTANT HEAD" ON UNIT  39 AT TIME STEP 12, STRESS PERIOD  15
 UBDSV1 SAVING "FLOW RIGHT FACE " ON UNIT  39 AT TIME STEP 12, STRESS PERIOD  15
 UBDSV1 SAVING "FLOW FRONT FACE " ON UNIT  39 AT TIME STEP 12, STRESS PERIOD  15
 UBDSV1 SAVING "FLOW LOWER FACE " ON UNIT  39 AT TIME STEP 12, STRESS PERIOD  15
 UBDSV4 SAVING "           WELLS" ON UNIT  39 AT TIME STEP 12, STRESS PERIOD  15
 UBDSV3 SAVING "              ET" ON UNIT  39 AT TIME STEP 12, STRESS PERIOD  15
 UBDSV3 SAVING "        RECHARGE" ON UNIT  39 AT TIME STEP 12, STRESS PERIOD  15
1
  VOLUMETRIC BUDGET FOR ENTIRE MODEL AT END OF TIME STEP   12, STRESS PERIOD  15
  ------------------------------------------------------------------------------

     CUMULATIVE VOLUMES      L**3       RATES FOR THIS TIME STEP      L**3/T
     ------------------                 ------------------------

           IN:                                      IN:
           ---                                      ---
             STORAGE     = 55231344640.0000               STORAGE     =    15431952.0000
       CONSTANT HEAD     =  6836992512.0000         CONSTANT HEAD     =     1401627.3750
               WELLS     =  6715287552.0000                 WELLS     =     1225642.0000
                  ET     =           0.0000                    ET     =           0.0000
            RECHARGE     = 69926412288.0000              RECHARGE     =    22660606.0000

                TOTAL IN =138710040576.0000                  TOTAL IN =    40719828.0000

          OUT:                                     OUT:
          ----                                     ----
             STORAGE     =  5674492928.0000               STORAGE     =     2669739.7500
       CONSTANT HEAD     = 19155140608.0000         CONSTANT HEAD     =     4041926.7500
               WELLS     =107805425664.0000                 WELLS     =    33064138.0000
                  ET     =  6074997248.0000                    ET     =      944071.3125
            RECHARGE     =           0.0000              RECHARGE     =           0.0000

               TOTAL OUT =138710056960.0000                 TOTAL OUT =    40719876.0000

                IN - OUT =      -16384.0000                  IN - OUT =         -48.0000

     PERCENT DISCREPANCY =          -0.00         PERCENT DISCREPANCY =          -0.00






         TIME SUMMARY AT END OF TIME STEP   12 IN STRESS PERIOD   15
                    SECONDS     MINUTES      HOURS       DAYS        YEARS
                    -----------------------------------------------------------
   TIME STEP LENGTH 2.62800E+06  43800.      730.00      30.417     8.32763E-02
 STRESS PERIOD TIME 3.15360E+07 5.25600E+05  8760.0      365.00     0.99932    
         TOTAL TIME 4.73385E+08 7.88976E+06 1.31496E+05  5479.0      15.001    
1
1
                            STRESS PERIOD NO.   16, LENGTH =   365.0000    
                            -----------------------------------------------

                              NUMBER OF TIME STEPS =    12

                               MULTIPLIER FOR DELT =     1.000

                            INITIAL TIME STEP SIZE =   30.41667    

   1653 WELLS

 REUSING SURF FROM LAST STRESS PERIOD

 REUSING EVTR FROM LAST STRESS PERIOD

 REUSING EXDP FROM LAST STRESS PERIOD



                           RECHARGE
 READING ON UNIT   16 WITH FORMAT: (15F5.0)            


     63 TIME-VARIANT SPECIFIED-HEAD CELLS
 
 SOLVING FOR HEAD 
                                                   Max.-Head-Change                        Max.-Flux-Residual
  Residual-Control   Outer-Iter.   Inner-Iter.     Column Row Layer    Max.-Head-Change    Column Row Layer    Max.-Flux-Residual            L2-New               L2-Old           Solver-Max-Delh
          0                 1          11            65    2     2       0.7768156860E+01      24   22    1      -0.1353718448E+06      0.6094802565E+06      0.4770676343E+03      0.7768156860E+01
          0                 2          10            63   83     2       0.3438725962E+00      63   83    1       0.1777889361E+05      0.6685281395E+05      0.6094802565E+06      0.3438725962E+00
          0                 3           7            91   52     3       0.2031245363E-01      33   19    1       0.2957892973E+03      0.5156611286E+03      0.6685281395E+05      0.2031245363E-01
          0                 4           3            65    2     2      -0.8609520868E-03      18   34    2      -0.1897514824E+01      0.2679831014E+01      0.5156611286E+03     -0.8609520868E-03

    ------------------------------------------------
       NWT REQUIRED            4 OUTER ITERATIONS 
       AND A TOTAL OF         31 INNER ITERATIONS.
    ------------------------------------------------

 NO OUTPUT CONTROL FOR STRESS PERIOD   16   TIME STEP    1
 
 SOLVING FOR HEAD 
                                                   Max.-Head-Change                        Max.-Flux-Residual
  Residual-Control   Outer-Iter.   Inner-Iter.     Column Row Layer    Max.-Head-Change    Column Row Layer    Max.-Flux-Residual            L2-New               L2-Old           Solver-Max-Delh
          0                 1          11            81   45     1      -0.1225582719E+01      24   22    1      -0.5375805268E+05      0.4396955267E+06      0.2679831014E+01     -0.1225582719E+01
          0                 2          10            33   35     3       0.2451718487E+00      24   22    1       0.5248554289E+04      0.4445499285E+05      0.4396955267E+06      0.2451718487E+00
          0                 3           6            59   89     2       0.2090805212E-01      59   89    2       0.2940659284E+03      0.4574729047E+03      0.4445499285E+05      0.2090805212E-01
          0                 4           3            33   61     1      -0.3290442408E-03      33   61    1      -0.1455681043E+02      0.1459993267E+02      0.4574729047E+03     -0.3290442408E-03

    ------------------------------------------------
       NWT REQUIRED            4 OUTER ITERATIONS 
       AND A TOTAL OF         30 INNER ITERATIONS.
    ------------------------------------------------

 NO OUTPUT CONTROL FOR STRESS PERIOD   16   TIME STEP    2
 
 SOLVING FOR HEAD 
                                                   Max.-Head-Change                        Max.-Flux-Residual
  Residual-Control   Outer-Iter.   Inner-Iter.     Column Row Layer    Max.-Head-Change    Column Row Layer    Max.-Flux-Residual            L2-New               L2-Old           Solver-Max-Delh
          0                 1          11            81   45     1      -0.1066346819E+01      81   45    1      -0.3320833981E+05      0.4074966138E+06      0.1459993267E+02     -0.1066346819E+01
          0                 2          10            33   61     1      -0.4328269547E+00      20   48    3       0.1018114976E+05      0.4333516436E+05      0.4074966138E+06     -0.4328269547E+00
          0                 3           7            20   48     2      -0.8618280473E-01      20   48    2      -0.3945084466E+04      0.3995728814E+04      0.4333516436E+05     -0.8618280473E-01
          0                 4           6            20   48     2      -0.7766281918E-02      20   48    2      -0.3553926443E+03      0.3554083169E+03      0.3995728814E+04     -0.7766281918E-02

    ------------------------------------------------
       NWT REQUIRED            4 OUTER ITERATIONS 
       AND A TOTAL OF         34 INNER ITERATIONS.
    ------------------------------------------------

 NO OUTPUT CONTROL FOR STRESS PERIOD   16   TIME STEP    3
 
 SOLVING FOR HEAD 
                                                   Max.-Head-Change                        Max.-Flux-Residual
  Residual-Control   Outer-Iter.   Inner-Iter.     Column Row Layer    Max.-Head-Change    Column Row Layer    Max.-Flux-Residual            L2-New               L2-Old           Solver-Max-Delh
          0                 1          11            38   20     2      -0.9332650902E+00      81   45    1      -0.2889322134E+05      0.3927414457E+06      0.3554083169E+03     -0.9332650902E+00
          0                 2          10            20   48     2      -0.3884596763E+00      27   41    2       0.7780693867E+04      0.4168155017E+05      0.3927414457E+06     -0.3884596763E+00
          0                 3           6            20   48     2       0.3553108472E-01      20   48    2       0.7353789288E+03      0.7601629032E+03      0.4168155017E+05      0.3553108472E-01
          0                 4           3            20   48     2       0.4354985372E-04      21   48    2      -0.1222626157E+01      0.1504604956E+01      0.7601629032E+03      0.4354985372E-04

    ------------------------------------------------
       NWT REQUIRED            4 OUTER ITERATIONS 
       AND A TOTAL OF         30 INNER ITERATIONS.
    ------------------------------------------------

 NO OUTPUT CONTROL FOR STRESS PERIOD   16   TIME STEP    4
 
 SOLVING FOR HEAD 
                                                   Max.-Head-Change                        Max.-Flux-Residual
  Residual-Control   Outer-Iter.   Inner-Iter.     Column Row Layer    Max.-Head-Change    Column Row Layer    Max.-Flux-Residual            L2-New               L2-Old           Solver-Max-Delh
          0                 1          11            18   43     2      -0.1338350854E+01      12   10    1      -0.2725496400E+05      0.3834594259E+06      0.1504604956E+01     -0.1338350854E+01
          0                 2          10            18   43     2       0.1172882297E+00      12   10    1       0.2658771585E+04      0.3836615346E+05      0.3834594259E+06      0.1172882297E+00
          0                 3           5            73   15     1      -0.7279023419E-03      18   43    2       0.2210651167E+01      0.1859948280E+02      0.3836615346E+05     -0.7279023419E-03

    ------------------------------------------------
       NWT REQUIRED            3 OUTER ITERATIONS 
       AND A TOTAL OF         26 INNER ITERATIONS.
    ------------------------------------------------

 NO OUTPUT CONTROL FOR STRESS PERIOD   16   TIME STEP    5
 
 SOLVING FOR HEAD 
                                                   Max.-Head-Change                        Max.-Flux-Residual
  Residual-Control   Outer-Iter.   Inner-Iter.     Column Row Layer    Max.-Head-Change    Column Row Layer    Max.-Flux-Residual            L2-New               L2-Old           Solver-Max-Delh
          0                 1          11            73   15     3       0.7270864884E+00      12   10    1      -0.2732658017E+05      0.3770096192E+06      0.1859948280E+02      0.7270864884E+00
          0                 2          10            56  104     2      -0.1566601785E+00      20   49    3       0.4074360448E+04      0.3791938993E+05      0.3770096192E+06     -0.1566601785E+00
          0                 3           6            56  104     2       0.1344171356E-01      56  104    2       0.7679432644E+02      0.8349247540E+02      0.3791938993E+05      0.1344171356E-01
          0                 4           2            56  104     2       0.6929577029E-04      56  104    2       0.3752866611E+00      0.4475549164E+00      0.8349247540E+02      0.6929577029E-04

    ------------------------------------------------
       NWT REQUIRED            4 OUTER ITERATIONS 
       AND A TOTAL OF         29 INNER ITERATIONS.
    ------------------------------------------------

 NO OUTPUT CONTROL FOR STRESS PERIOD   16   TIME STEP    6
 
 SOLVING FOR HEAD 
                                                   Max.-Head-Change                        Max.-Flux-Residual
  Residual-Control   Outer-Iter.   Inner-Iter.     Column Row Layer    Max.-Head-Change    Column Row Layer    Max.-Flux-Residual            L2-New               L2-Old           Solver-Max-Delh
          0                 1          11            73   15     3       0.7182245380E+00      12   11    1      -0.2740905174E+05      0.3717207170E+06      0.4475549164E+00      0.7182245380E+00
          0                 2          10            16   32     2      -0.2849799464E+00      49   34    1      -0.5635869823E+04      0.3815779883E+05      0.3717207170E+06     -0.2849799464E+00
          0                 3           6            16   32     2       0.2540711069E-01      16   32    2       0.4487827093E+03      0.5237592190E+03      0.3815779883E+05      0.2540711069E-01
          0                 4           3            16   32     2       0.4543294157E-04      16   32    2       0.7009897605E+00      0.7807016459E+00      0.5237592190E+03      0.4543294157E-04

    ------------------------------------------------
       NWT REQUIRED            4 OUTER ITERATIONS 
       AND A TOTAL OF         30 INNER ITERATIONS.
    ------------------------------------------------

 NO OUTPUT CONTROL FOR STRESS PERIOD   16   TIME STEP    7
 
 SOLVING FOR HEAD 
                                                   Max.-Head-Change                        Max.-Flux-Residual
  Residual-Control   Outer-Iter.   Inner-Iter.     Column Row Layer    Max.-Head-Change    Column Row Layer    Max.-Flux-Residual            L2-New               L2-Old           Solver-Max-Delh
          0                 1          11            16   32     2      -0.8821882646E+00      12   11    1      -0.2762123722E+05      0.3673366550E+06      0.7807016459E+00     -0.8821882646E+00
          0                 2          10            34   15     2      -0.1462232285E+00      33   62    2       0.4234562372E+04      0.3750221898E+05      0.3673366550E+06     -0.1462232285E+00
          0                 3           6            34   15     2       0.8956149586E-02      49   34    2      -0.3546619797E+03      0.3804449767E+03      0.3750221898E+05      0.8956149586E-02

    ------------------------------------------------
       NWT REQUIRED            3 OUTER ITERATIONS 
       AND A TOTAL OF         27 INNER ITERATIONS.
    ------------------------------------------------

 NO OUTPUT CONTROL FOR STRESS PERIOD   16   TIME STEP    8
 
 SOLVING FOR HEAD 
                                                   Max.-Head-Change                        Max.-Flux-Residual
  Residual-Control   Outer-Iter.   Inner-Iter.     Column Row Layer    Max.-Head-Change    Column Row Layer    Max.-Flux-Residual            L2-New               L2-Old           Solver-Max-Delh
          0                 1          11            34   15     2      -0.4261147947E+01      12   11    1      -0.2777413739E+05      0.3637474746E+06      0.3804449767E+03     -0.4261147947E+01
          0                 2          10            30   36     1      -0.1957815303E+01      30   36    1      -0.1116058978E+05      0.3921729228E+05      0.3637474746E+06     -0.1957815303E+01
          0                 3           6            30   36     1       0.1695326274E+00      30   36    1       0.1061640674E+04      0.1169346168E+04      0.3921729228E+05      0.1695326274E+00
          0                 4           3            30   36     1       0.7712822762E-03      30   36    1       0.4711488331E+01      0.4860178901E+01      0.1169346168E+04      0.7712822762E-03

    ------------------------------------------------
       NWT REQUIRED            4 OUTER ITERATIONS 
       AND A TOTAL OF         30 INNER ITERATIONS.
    ------------------------------------------------

 NO OUTPUT CONTROL FOR STRESS PERIOD   16   TIME STEP    9

 INTERPOLATION FOR HEAD OBS# 6237, ID 1164-16-300  CHANGED BECAUSE AT LEAST ONE
 NEIGHBORING CELL REQUIRED FOR INTERPOLATION IS DRY OR INACTIVE (OBS2BAS7SE)
 
 SOLVING FOR HEAD 
                                                   Max.-Head-Change                        Max.-Flux-Residual
  Residual-Control   Outer-Iter.   Inner-Iter.     Column Row Layer    Max.-Head-Change    Column Row Layer    Max.-Flux-Residual            L2-New               L2-Old           Solver-Max-Delh
          0                 1          11            30   36     1      -0.1091903811E+01      12   11    1      -0.2788791434E+05      0.3605232780E+06      0.4860178901E+01     -0.1091903811E+01
          0                 2          10            38   32     1      -0.1108531040E+01      23   30    1      -0.7119274419E+04      0.3761427887E+05      0.3605232780E+06     -0.1108531040E+01
          0                 3           6            38   32     1       0.9346105251E-01      31   35    1      -0.1537908243E+04      0.1904438769E+04      0.3761427887E+05      0.9346105251E-01
          0                 4           4            31   35     1      -0.3541297894E-02      31   35    1      -0.1385106367E+03      0.1394136195E+03      0.1904438769E+04     -0.3541297894E-02

    ------------------------------------------------
       NWT REQUIRED            4 OUTER ITERATIONS 
       AND A TOTAL OF         31 INNER ITERATIONS.
    ------------------------------------------------

 NO OUTPUT CONTROL FOR STRESS PERIOD   16   TIME STEP   10

 INTERPOLATION FOR HEAD OBS# 3492, ID 1501-16-309  CHANGED BECAUSE AT LEAST ONE
 NEIGHBORING CELL REQUIRED FOR INTERPOLATION IS DRY OR INACTIVE (OBS2BAS7SE)
 
 SOLVING FOR HEAD 
                                                   Max.-Head-Change                        Max.-Flux-Residual
  Residual-Control   Outer-Iter.   Inner-Iter.     Column Row Layer    Max.-Head-Change    Column Row Layer    Max.-Flux-Residual            L2-New               L2-Old           Solver-Max-Delh
          0                 1          11            30   37     1      -0.9065971400E+00      12   11    1      -0.2797572585E+05      0.3577912939E+06      0.1394136195E+03     -0.9065971400E+00
          0                 2          10            31   35     1      -0.1632509748E+01      31   35    1      -0.1201357152E+05      0.3856280414E+05      0.3577912939E+06     -0.1632509748E+01
          0                 3           6            31   35     1       0.1426179410E+00      31   35    1       0.1156015190E+04      0.1346524278E+04      0.3856280414E+05      0.1426179410E+00
          0                 4           3            31   35     1       0.5031588516E-03      31   35    1       0.3945753280E+01      0.4250248253E+01      0.1346524278E+04      0.5031588516E-03

    ------------------------------------------------
       NWT REQUIRED            4 OUTER ITERATIONS 
       AND A TOTAL OF         30 INNER ITERATIONS.
    ------------------------------------------------

 NO OUTPUT CONTROL FOR STRESS PERIOD   16   TIME STEP   11

 INTERPOLATION FOR HEAD OBS# 1563, ID 2931-16-361  CHANGED BECAUSE AT LEAST ONE
 NEIGHBORING CELL REQUIRED FOR INTERPOLATION IS DRY OR INACTIVE (OBS2BAS7SE)

 INTERPOLATION FOR HEAD OBS# 6232, ID 1921-16-362  CHANGED BECAUSE AT LEAST ONE
 NEIGHBORING CELL REQUIRED FOR INTERPOLATION IS DRY OR INACTIVE (OBS2BAS7SE)
 
 SOLVING FOR HEAD 
                                                   Max.-Head-Change                        Max.-Flux-Residual
  Residual-Control   Outer-Iter.   Inner-Iter.     Column Row Layer    Max.-Head-Change    Column Row Layer    Max.-Flux-Residual            L2-New               L2-Old           Solver-Max-Delh
          0                 1          11            33   34     1      -0.1362037771E+01      12   11    1      -0.2804103817E+05      0.3555921978E+06      0.4250248253E+01     -0.1362037771E+01
          0                 2          10            33   34     1       0.1192984889E+00      35   60    2       0.5929024162E+04      0.3607209863E+05      0.3555921978E+06      0.1192984889E+00
          0                 3           6            18   44     2       0.6922616126E-02      59   81    1      -0.2190662615E+03      0.3270856044E+03      0.3607209863E+05      0.6922616126E-02

    ------------------------------------------------
       NWT REQUIRED            3 OUTER ITERATIONS 
       AND A TOTAL OF         27 INNER ITERATIONS.
    ------------------------------------------------

 OUTPUT CONTROL FOR STRESS PERIOD   16   TIME STEP   12
    SAVE HEAD FOR LAYERS:   1  2  3
    SAVE BUDGET
 UBDSV1 SAVING "         STORAGE" ON UNIT  39 AT TIME STEP 12, STRESS PERIOD  16
 UBDSV2 SAVING "   CONSTANT HEAD" ON UNIT  39 AT TIME STEP 12, STRESS PERIOD  16
 UBDSV1 SAVING "FLOW RIGHT FACE " ON UNIT  39 AT TIME STEP 12, STRESS PERIOD  16
 UBDSV1 SAVING "FLOW FRONT FACE " ON UNIT  39 AT TIME STEP 12, STRESS PERIOD  16
 UBDSV1 SAVING "FLOW LOWER FACE " ON UNIT  39 AT TIME STEP 12, STRESS PERIOD  16
 UBDSV4 SAVING "           WELLS" ON UNIT  39 AT TIME STEP 12, STRESS PERIOD  16
 UBDSV3 SAVING "              ET" ON UNIT  39 AT TIME STEP 12, STRESS PERIOD  16
 UBDSV3 SAVING "        RECHARGE" ON UNIT  39 AT TIME STEP 12, STRESS PERIOD  16

 INTERPOLATION FOR HEAD OBS# 3399, ID 1428-17-11   CHANGED BECAUSE AT LEAST ONE
 NEIGHBORING CELL REQUIRED FOR INTERPOLATION IS DRY OR INACTIVE (OBS2BAS7SE)

 INTERPOLATION FOR HEAD OBS# 5424, ID 846-17-5     CHANGED BECAUSE AT LEAST ONE
 NEIGHBORING CELL REQUIRED FOR INTERPOLATION IS DRY OR INACTIVE (OBS2BAS7SE)

 HEAD WILL BE SAVED ON UNIT   31 AT END OF TIME STEP   12, STRESS PERIOD   16
1
  VOLUMETRIC BUDGET FOR ENTIRE MODEL AT END OF TIME STEP   12, STRESS PERIOD  16
  ------------------------------------------------------------------------------

     CUMULATIVE VOLUMES      L**3       RATES FOR THIS TIME STEP      L**3/T
     ------------------                 ------------------------

           IN:                                      IN:
           ---                                      ---
             STORAGE     = 60605644800.0000               STORAGE     =    14281987.0000
       CONSTANT HEAD     =  7337675776.0000         CONSTANT HEAD     =     1375303.6250
               WELLS     =  7162644480.0000                 WELLS     =     1225642.0000
                  ET     =           0.0000                    ET     =           0.0000
            RECHARGE     = 78903631872.0000              RECHARGE     =    24594996.0000

                TOTAL IN =154009600000.0000                  TOTAL IN =    41477928.0000

          OUT:                                     OUT:
          ----                                     ----
             STORAGE     =  7066754560.0000               STORAGE     =     3380587.2500
       CONSTANT HEAD     = 20632111104.0000         CONSTANT HEAD     =     4098334.5000
               WELLS     =119940308992.0000                 WELLS     =    33230520.0000
                  ET     =  6370393088.0000                    ET     =      768509.3750
            RECHARGE     =           0.0000              RECHARGE     =           0.0000

               TOTAL OUT =154009567232.0000                 TOTAL OUT =    41477948.0000

                IN - OUT =       32768.0000                  IN - OUT =         -20.0000

     PERCENT DISCREPANCY =           0.00         PERCENT DISCREPANCY =          -0.00






         TIME SUMMARY AT END OF TIME STEP   12 IN STRESS PERIOD   16
                    SECONDS     MINUTES      HOURS       DAYS        YEARS
                    -----------------------------------------------------------
   TIME STEP LENGTH 2.62800E+06  43800.      730.00      30.417     8.32763E-02
 STRESS PERIOD TIME 3.15360E+07 5.25600E+05  8760.0      365.00     0.99932    
         TOTAL TIME 5.04921E+08 8.41536E+06 1.40256E+05  5844.0      16.000    
1
1
                            STRESS PERIOD NO.   17, LENGTH =   366.0000    
                            -----------------------------------------------

                              NUMBER OF TIME STEPS =    12

                               MULTIPLIER FOR DELT =     1.000

                            INITIAL TIME STEP SIZE =   30.50000    

   1598 WELLS

 REUSING SURF FROM LAST STRESS PERIOD

 REUSING EVTR FROM LAST STRESS PERIOD

 REUSING EXDP FROM LAST STRESS PERIOD



                           RECHARGE
 READING ON UNIT   16 WITH FORMAT: (15F5.0)            


     63 TIME-VARIANT SPECIFIED-HEAD CELLS
 
 SOLVING FOR HEAD 
                                                   Max.-Head-Change                        Max.-Flux-Residual
  Residual-Control   Outer-Iter.   Inner-Iter.     Column Row Layer    Max.-Head-Change    Column Row Layer    Max.-Flux-Residual            L2-New               L2-Old           Solver-Max-Delh
          0                 1          12            65    2     2      -0.2949784055E+02      18   17    2      -0.3451750017E+06      0.1345188296E+07      0.3270856044E+03     -0.2949784055E+02
          0                 2          11            69   63     3       0.1118849531E+01      18   17    2       0.2966378829E+05      0.1302447345E+06      0.1345188296E+07      0.1118849531E+01
          0                 3           7            17   36     2       0.6002512040E-01      17   36    2       0.7231250181E+03      0.1183770556E+04      0.1302447345E+06      0.6002512040E-01
          0                 4           5            65    2     2       0.3178672955E-02      22   27    2       0.5139553280E+02      0.7326323344E+02      0.1183770556E+04      0.3178672955E-02

    ------------------------------------------------
       NWT REQUIRED            4 OUTER ITERATIONS 
       AND A TOTAL OF         35 INNER ITERATIONS.
    ------------------------------------------------

 NO OUTPUT CONTROL FOR STRESS PERIOD   17   TIME STEP    1

 INTERPOLATION FOR HEAD OBS# 3656, ID 1891-17-37   CHANGED BECAUSE AT LEAST ONE
 NEIGHBORING CELL REQUIRED FOR INTERPOLATION IS DRY OR INACTIVE (OBS2BAS7SE)

 INTERPOLATION FOR HEAD OBS# 3705, ID 1471-17-33   CHANGED BECAUSE AT LEAST ONE
 NEIGHBORING CELL REQUIRED FOR INTERPOLATION IS DRY OR INACTIVE (OBS2BAS7SE)

 INTERPOLATION FOR HEAD OBS# 3749, ID 1427-17-39   CHANGED BECAUSE AT LEAST ONE
 NEIGHBORING CELL REQUIRED FOR INTERPOLATION IS DRY OR INACTIVE (OBS2BAS7SE)

 INTERPOLATION FOR HEAD OBS# 3773, ID 1349-17-41   CHANGED BECAUSE AT LEAST ONE
 NEIGHBORING CELL REQUIRED FOR INTERPOLATION IS DRY OR INACTIVE (OBS2BAS7SE)

 INTERPOLATION FOR HEAD OBS# 5685, ID 1168-17-47   CHANGED BECAUSE AT LEAST ONE
 NEIGHBORING CELL REQUIRED FOR INTERPOLATION IS DRY OR INACTIVE (OBS2BAS7SE)
 
 SOLVING FOR HEAD 
                                                   Max.-Head-Change                        Max.-Flux-Residual
  Residual-Control   Outer-Iter.   Inner-Iter.     Column Row Layer    Max.-Head-Change    Column Row Layer    Max.-Flux-Residual            L2-New               L2-Old           Solver-Max-Delh
          0                 1          11            69   63     3      -0.3668032857E+01      34   59    2      -0.1321079455E+06      0.8266145177E+06      0.7326323344E+02     -0.3668032857E+01
          0                 2          10            69   63     3       0.3350352427E+00      34   59    2       0.1272699715E+05      0.8202669234E+05      0.8266145177E+06      0.3350352427E+00
          0                 3           6            61   64     3       0.1051813656E-02      59   62    1      -0.6325482398E+02      0.1154752891E+03      0.8202669234E+05      0.1051813656E-02

    ------------------------------------------------
       NWT REQUIRED            3 OUTER ITERATIONS 
       AND A TOTAL OF         27 INNER ITERATIONS.
    ------------------------------------------------

 NO OUTPUT CONTROL FOR STRESS PERIOD   17   TIME STEP    2

 INTERPOLATION FOR HEAD OBS# 6991, ID 683-17-78    CHANGED BECAUSE AT LEAST ONE
 NEIGHBORING CELL REQUIRED FOR INTERPOLATION IS DRY OR INACTIVE (OBS2BAS7SE)
 
 SOLVING FOR HEAD 
                                                   Max.-Head-Change                        Max.-Flux-Residual
  Residual-Control   Outer-Iter.   Inner-Iter.     Column Row Layer    Max.-Head-Change    Column Row Layer    Max.-Flux-Residual            L2-New               L2-Old           Solver-Max-Delh
          0                 1          11            34   59     2      -0.2351309171E+01      34   59    2      -0.8543532432E+05      0.7033304623E+06      0.1154752891E+03     -0.2351309171E+01
          0                 2          10            34   59     2       0.2131473047E+00      34   59    2       0.8620418537E+04      0.7005930133E+05      0.7033304623E+06      0.2131473047E+00
          0                 3           6            31   37     1       0.5713914350E-03      34   59    1       0.5494115002E+01      0.2424915550E+02      0.7005930133E+05      0.5713914350E-03

    ------------------------------------------------
       NWT REQUIRED            3 OUTER ITERATIONS 
       AND A TOTAL OF         27 INNER ITERATIONS.
    ------------------------------------------------

 NO OUTPUT CONTROL FOR STRESS PERIOD   17   TIME STEP    3
 
 SOLVING FOR HEAD 
                                                   Max.-Head-Change                        Max.-Flux-Residual
  Residual-Control   Outer-Iter.   Inner-Iter.     Column Row Layer    Max.-Head-Change    Column Row Layer    Max.-Flux-Residual            L2-New               L2-Old           Solver-Max-Delh
          0                 1          11            34   59     2      -0.1721715026E+01      34   59    2      -0.5875838006E+05      0.6481960434E+06      0.2424915550E+02     -0.1721715026E+01
          0                 2          10            70   18     1      -0.1671007062E+01      70   18    1      -0.7671174269E+04      0.6517858860E+05      0.6481960434E+06     -0.1671007062E+01
          0                 3           6            70   18     1       0.1426914106E+00      70   18    1       0.7210602693E+03      0.7549896459E+03      0.6517858860E+05      0.1426914106E+00
          0                 4           2            70   18     1       0.7853902581E-03      70   18    1       0.3930327877E+01      0.3949687879E+01      0.7549896459E+03      0.7853902581E-03

    ------------------------------------------------
       NWT REQUIRED            4 OUTER ITERATIONS 
       AND A TOTAL OF         29 INNER ITERATIONS.
    ------------------------------------------------

 NO OUTPUT CONTROL FOR STRESS PERIOD   17   TIME STEP    4
 
 SOLVING FOR HEAD 
                                                   Max.-Head-Change                        Max.-Flux-Residual
  Residual-Control   Outer-Iter.   Inner-Iter.     Column Row Layer    Max.-Head-Change    Column Row Layer    Max.-Flux-Residual            L2-New               L2-Old           Solver-Max-Delh
          0                 1          11            81   46     1      -0.1353172895E+01      81   46    1      -0.4723995081E+05      0.6173706386E+06      0.3949687879E+01     -0.1353172895E+01
          0                 2          10            34   14     2      -0.1864742798E+00      81   46    1       0.4721158165E+04      0.6168405513E+05      0.6173706386E+06     -0.1864742798E+00
          0                 3           6            34   14     2       0.1182874442E-01      23   27    2       0.5579661596E+02      0.6746601361E+02      0.6168405513E+05      0.1182874442E-01
          0                 4           3            34   14     2       0.3251406929E-03      59   72    1      -0.1215153456E+01      0.1402875518E+01      0.6746601361E+02      0.3251406929E-03

    ------------------------------------------------
       NWT REQUIRED            4 OUTER ITERATIONS 
       AND A TOTAL OF         30 INNER ITERATIONS.
    ------------------------------------------------

 NO OUTPUT CONTROL FOR STRESS PERIOD   17   TIME STEP    5
 
 SOLVING FOR HEAD 
                                                   Max.-Head-Change                        Max.-Flux-Residual
  Residual-Control   Outer-Iter.   Inner-Iter.     Column Row Layer    Max.-Head-Change    Column Row Layer    Max.-Flux-Residual            L2-New               L2-Old           Solver-Max-Delh
          0                 1          11            34   14     2      -0.3666919877E+01      81   46    1      -0.4218815260E+05      0.5973188499E+06      0.1402875518E+01     -0.3666919877E+01
          0                 2          10            34   14     2       0.2325643619E+00      23   27    2       0.9099197387E+04      0.6063902422E+05      0.5973188499E+06      0.2325643619E+00
          0                 3           6            34   14     2       0.6372686558E-02      58   74    2       0.9326388709E+01      0.2596437771E+02      0.6063902422E+05      0.6372686558E-02

    ------------------------------------------------
       NWT REQUIRED            3 OUTER ITERATIONS 
       AND A TOTAL OF         27 INNER ITERATIONS.
    ------------------------------------------------

 NO OUTPUT CONTROL FOR STRESS PERIOD   17   TIME STEP    6
 
 SOLVING FOR HEAD 
                                                   Max.-Head-Change                        Max.-Flux-Residual
  Residual-Control   Outer-Iter.   Inner-Iter.     Column Row Layer    Max.-Head-Change    Column Row Layer    Max.-Flux-Residual            L2-New               L2-Old           Solver-Max-Delh
          0                 1          11            81   46     1      -0.1080569319E+01      81   46    1      -0.3769151128E+05      0.5828112602E+06      0.2596437771E+02     -0.1080569319E+01
          0                 2          10            18   42     2      -0.3389765772E+00      81   46    1       0.3767371343E+04      0.5841146290E+05      0.5828112602E+06     -0.3389765772E+00
          0                 3           6            18   42     2       0.3032848379E-01      18   42    2       0.3602375094E+03      0.4241228432E+03      0.5841146290E+05      0.3032848379E-01
          0                 4           3            18   42     2       0.5418109103E-04      18   42    2       0.5665829107E+00      0.6457619056E+00      0.4241228432E+03      0.5418109103E-04

    ------------------------------------------------
       NWT REQUIRED            4 OUTER ITERATIONS 
       AND A TOTAL OF         30 INNER ITERATIONS.
    ------------------------------------------------

 NO OUTPUT CONTROL FOR STRESS PERIOD   17   TIME STEP    7
 
 SOLVING FOR HEAD 
                                                   Max.-Head-Change                        Max.-Flux-Residual
  Residual-Control   Outer-Iter.   Inner-Iter.     Column Row Layer    Max.-Head-Change    Column Row Layer    Max.-Flux-Residual            L2-New               L2-Old           Solver-Max-Delh
          0                 1          11            18   42     2      -0.1005382398E+01      81   46    1      -0.3368831952E+05      0.5719912382E+06      0.6457619056E+00     -0.1005382398E+01
          0                 2          10            17   35     2      -0.5814069866E+00      17   35    2      -0.6471602995E+04      0.5756883976E+05      0.5719912382E+06     -0.5814069866E+00
          0                 3           6            17   35     2       0.5190081997E-01      17   35    2       0.6362421641E+03      0.6813506133E+03      0.5756883976E+05      0.5190081997E-01
          0                 4           3            17   35     2       0.8486198376E-04      17   35    2       0.9509037957E+00      0.1070995973E+01      0.6813506133E+03      0.8486198376E-04

    ------------------------------------------------
       NWT REQUIRED            4 OUTER ITERATIONS 
       AND A TOTAL OF         30 INNER ITERATIONS.
    ------------------------------------------------

 NO OUTPUT CONTROL FOR STRESS PERIOD   17   TIME STEP    8
 
 SOLVING FOR HEAD 
                                                   Max.-Head-Change                        Max.-Flux-Residual
  Residual-Control   Outer-Iter.   Inner-Iter.     Column Row Layer    Max.-Head-Change    Column Row Layer    Max.-Flux-Residual            L2-New               L2-Old           Solver-Max-Delh
          0                 1          11            81   46     1      -0.8655032172E+00      81   46    1      -0.3013906111E+05      0.5634470443E+06      0.1070995973E+01     -0.8655032172E+00
          0                 2          10            25   62     2       0.1770887784E+00      20   22    2       0.1458654061E+05      0.5894703958E+05      0.5634470443E+06      0.1770887784E+00
          0                 3           7            25   62     2      -0.9304415216E-01      25   62    2      -0.4495016468E+04      0.4783406938E+04      0.5894703958E+05     -0.9304415216E-01
          0                 4           4            25   62     2      -0.8385416847E-02      25   62    2      -0.4049567371E+03      0.4049949431E+03      0.4783406938E+04     -0.8385416847E-02

    ------------------------------------------------
       NWT REQUIRED            4 OUTER ITERATIONS 
       AND A TOTAL OF         32 INNER ITERATIONS.
    ------------------------------------------------

 NO OUTPUT CONTROL FOR STRESS PERIOD   17   TIME STEP    9
 
 SOLVING FOR HEAD 
                                                   Max.-Head-Change                        Max.-Flux-Residual
  Residual-Control   Outer-Iter.   Inner-Iter.     Column Row Layer    Max.-Head-Change    Column Row Layer    Max.-Flux-Residual            L2-New               L2-Old           Solver-Max-Delh
          0                 1          11            81   46     1      -0.7752210588E+00      12   11    1      -0.2822761369E+05      0.5560849896E+06      0.4049949431E+03     -0.7752210588E+00
          0                 2          10            21   51     2      -0.3025956728E+00      13   13    2       0.2486395715E+05      0.6620939135E+05      0.5560849896E+06     -0.3025956728E+00
          0                 3           7            16   34     2      -0.5154276942E-01      16   34    2      -0.1869149213E+04      0.2232738477E+04      0.6620939135E+05     -0.5154276942E-01
          0                 4           6            16   34     2      -0.4643432473E-02      16   34    2      -0.1683345684E+03      0.1685134977E+03      0.2232738477E+04     -0.4643432473E-02

    ------------------------------------------------
       NWT REQUIRED            4 OUTER ITERATIONS 
       AND A TOTAL OF         34 INNER ITERATIONS.
    ------------------------------------------------

 NO OUTPUT CONTROL FOR STRESS PERIOD   17   TIME STEP   10
 
 SOLVING FOR HEAD 
                                                   Max.-Head-Change                        Max.-Flux-Residual
  Residual-Control   Outer-Iter.   Inner-Iter.     Column Row Layer    Max.-Head-Change    Column Row Layer    Max.-Flux-Residual            L2-New               L2-Old           Solver-Max-Delh
          0                 1          11            20   22     1      -0.7829927503E+00      12   11    1      -0.2766475241E+05      0.5496714316E+06      0.1685134977E+03     -0.7829927503E+00
          0                 2          10            16   34     2      -0.7104030374E+00      12    5    1      -0.1224932821E+05      0.5766716838E+05      0.5496714316E+06     -0.7104030374E+00
          0                 3           7            16   34     2       0.6339873424E-01      12    5    1       0.1211975056E+04      0.1895810568E+04      0.5766716838E+05      0.6339873424E-01
          0                 4           3            16   34     2       0.1062460802E-03      16   34    2       0.1308952149E+01      0.2356101240E+01      0.1895810568E+04      0.1062460802E-03

    ------------------------------------------------
       NWT REQUIRED            4 OUTER ITERATIONS 
       AND A TOTAL OF         31 INNER ITERATIONS.
    ------------------------------------------------

 NO OUTPUT CONTROL FOR STRESS PERIOD   17   TIME STEP   11
 
 SOLVING FOR HEAD 
                                                   Max.-Head-Change                        Max.-Flux-Residual
  Residual-Control   Outer-Iter.   Inner-Iter.     Column Row Layer    Max.-Head-Change    Column Row Layer    Max.-Flux-Residual            L2-New               L2-Old           Solver-Max-Delh
          0                 1          11            30   35     1      -0.1021558756E+01      12   11    1      -0.2733906649E+05      0.5456453197E+06      0.2356101240E+01     -0.1021558756E+01
          0                 2          10            19   21     2       0.1850135284E+00      19   21    2       0.1732930015E+05      0.5926801575E+05      0.5456453197E+06      0.1850135284E+00
          0                 3           6            19   21     1      -0.9153357900E-02      19   21    1      -0.7075671067E+03      0.7122234305E+03      0.5926801575E+05     -0.9153357900E-02

    ------------------------------------------------
       NWT REQUIRED            3 OUTER ITERATIONS 
       AND A TOTAL OF         27 INNER ITERATIONS.
    ------------------------------------------------

 OUTPUT CONTROL FOR STRESS PERIOD   17   TIME STEP   12
    SAVE BUDGET
 UBDSV1 SAVING "         STORAGE" ON UNIT  39 AT TIME STEP 12, STRESS PERIOD  17
 UBDSV2 SAVING "   CONSTANT HEAD" ON UNIT  39 AT TIME STEP 12, STRESS PERIOD  17
 UBDSV1 SAVING "FLOW RIGHT FACE " ON UNIT  39 AT TIME STEP 12, STRESS PERIOD  17
 UBDSV1 SAVING "FLOW FRONT FACE " ON UNIT  39 AT TIME STEP 12, STRESS PERIOD  17
 UBDSV1 SAVING "FLOW LOWER FACE " ON UNIT  39 AT TIME STEP 12, STRESS PERIOD  17
 UBDSV4 SAVING "           WELLS" ON UNIT  39 AT TIME STEP 12, STRESS PERIOD  17
 UBDSV3 SAVING "              ET" ON UNIT  39 AT TIME STEP 12, STRESS PERIOD  17
 UBDSV3 SAVING "        RECHARGE" ON UNIT  39 AT TIME STEP 12, STRESS PERIOD  17
1
  VOLUMETRIC BUDGET FOR ENTIRE MODEL AT END OF TIME STEP   12, STRESS PERIOD  17
  ------------------------------------------------------------------------------

     CUMULATIVE VOLUMES      L**3       RATES FOR THIS TIME STEP      L**3/T
     ------------------                 ------------------------

           IN:                                      IN:
           ---                                      ---
             STORAGE     = 70662447104.0000               STORAGE     =    26918024.0000
       CONSTANT HEAD     =  7849808384.0000         CONSTANT HEAD     =     1406536.8750
               WELLS     =  7611230208.0000                 WELLS     =     1225642.0000
                  ET     =           0.0000                    ET     =           0.0000
            RECHARGE     = 82411216896.0000              RECHARGE     =     9583517.0000

                TOTAL IN =168534704128.0000                  TOTAL IN =    39133720.0000

          OUT:                                     OUT:
          ----                                     ----
             STORAGE     =  7242994688.0000               STORAGE     =      100047.3594
       CONSTANT HEAD     = 22082637824.0000         CONSTANT HEAD     =     3913596.0000
               WELLS     =132673527808.0000                 WELLS     =    34790332.0000
                  ET     =  6535459328.0000                    ET     =      329806.3438
            RECHARGE     =           0.0000              RECHARGE     =           0.0000

               TOTAL OUT =168534622208.0000                 TOTAL OUT =    39133784.0000

                IN - OUT =       81920.0000                  IN - OUT =         -64.0000

     PERCENT DISCREPANCY =           0.00         PERCENT DISCREPANCY =          -0.00






         TIME SUMMARY AT END OF TIME STEP   12 IN STRESS PERIOD   17
                    SECONDS     MINUTES      HOURS       DAYS        YEARS
                    -----------------------------------------------------------
   TIME STEP LENGTH 2.63520E+06  43920.      732.00      30.500     8.35044E-02
 STRESS PERIOD TIME 3.16224E+07 5.27040E+05  8784.0      366.00      1.0021    
         TOTAL TIME 5.36544E+08 8.94240E+06 1.49040E+05  6210.0      17.002    
1
1
                            STRESS PERIOD NO.   18, LENGTH =   365.0000    
                            -----------------------------------------------

                              NUMBER OF TIME STEPS =    12

                               MULTIPLIER FOR DELT =     1.000

                            INITIAL TIME STEP SIZE =   30.41667    

   1726 WELLS

 REUSING SURF FROM LAST STRESS PERIOD

 REUSING EVTR FROM LAST STRESS PERIOD

 REUSING EXDP FROM LAST STRESS PERIOD



                           RECHARGE
 READING ON UNIT   16 WITH FORMAT: (15F5.0)            


     63 TIME-VARIANT SPECIFIED-HEAD CELLS
 
 SOLVING FOR HEAD 
                                                   Max.-Head-Change                        Max.-Flux-Residual
  Residual-Control   Outer-Iter.   Inner-Iter.     Column Row Layer    Max.-Head-Change    Column Row Layer    Max.-Flux-Residual            L2-New               L2-Old           Solver-Max-Delh
          0                 1          11            92   77     2       0.1533145550E+02      23   15    2      -0.1696870505E+06      0.8712432191E+06      0.7122234305E+03      0.1533145550E+02
          0                 2          10            91   67     1      -0.8433578098E+00      83   51    1      -0.1806018264E+05      0.9098895062E+05      0.8712432191E+06     -0.8433578098E+00
          0                 3           7            37   19     2      -0.9755342152E-01      37   19    2      -0.3493987132E+04      0.3886905015E+04      0.9098895062E+05     -0.9755342152E-01
          0                 4           5            37   19     2      -0.8785410857E-02      37   19    2      -0.3145975531E+03      0.3150143746E+03      0.3886905015E+04     -0.8785410857E-02

    ------------------------------------------------
       NWT REQUIRED            4 OUTER ITERATIONS 
       AND A TOTAL OF         33 INNER ITERATIONS.
    ------------------------------------------------

 NO OUTPUT CONTROL FOR STRESS PERIOD   18   TIME STEP    1
 
 SOLVING FOR HEAD 
                                                   Max.-Head-Change                        Max.-Flux-Residual
  Residual-Control   Outer-Iter.   Inner-Iter.     Column Row Layer    Max.-Head-Change    Column Row Layer    Max.-Flux-Residual            L2-New               L2-Old           Solver-Max-Delh
          0                 1          11            81   45     1       0.3108192338E+01      76   48    1       0.1191603645E+06      0.6938182861E+06      0.3150143746E+03      0.3108192338E+01
          0                 2          10            37   19     2      -0.1238594630E+01      76   48    1      -0.1197090953E+05      0.7298251905E+05      0.6938182861E+06     -0.1238594630E+01
          0                 3           7            37   19     2       0.1057116457E+00      29   39    1      -0.2823067722E+04      0.2957751789E+04      0.7298251905E+05      0.1057116457E+00
          0                 4           5            29   39     1      -0.5055811752E-02      29   39    1      -0.2542267310E+03      0.2544201434E+03      0.2957751789E+04     -0.5055811752E-02

    ------------------------------------------------
       NWT REQUIRED            4 OUTER ITERATIONS 
       AND A TOTAL OF         33 INNER ITERATIONS.
    ------------------------------------------------

 NO OUTPUT CONTROL FOR STRESS PERIOD   18   TIME STEP    2
 
 SOLVING FOR HEAD 
                                                   Max.-Head-Change                        Max.-Flux-Residual
  Residual-Control   Outer-Iter.   Inner-Iter.     Column Row Layer    Max.-Head-Change    Column Row Layer    Max.-Flux-Residual            L2-New               L2-Old           Solver-Max-Delh
          0                 1          11            81   45     1       0.2719119565E+01      76   48    1       0.9374349191E+05      0.6342674574E+06      0.2544201434E+03      0.2719119565E+01
          0                 2          10            29   39     1      -0.5094177323E+00      68   47    1      -0.1619455543E+05      0.6678374765E+05      0.6342674574E+06     -0.5094177323E+00
          0                 3           6            29   39     1       0.4545178261E-01      12    6    1      -0.9458573098E+03      0.1314994938E+04      0.6678374765E+05      0.4545178261E-01
          0                 4           4            12    6     1      -0.1032375957E-02      12    6    1      -0.8514028168E+02      0.8515177691E+02      0.1314994938E+04     -0.1032375957E-02

    ------------------------------------------------
       NWT REQUIRED            4 OUTER ITERATIONS 
       AND A TOTAL OF         31 INNER ITERATIONS.
    ------------------------------------------------

 NO OUTPUT CONTROL FOR STRESS PERIOD   18   TIME STEP    3
 
 SOLVING FOR HEAD 
                                                   Max.-Head-Change                        Max.-Flux-Residual
  Residual-Control   Outer-Iter.   Inner-Iter.     Column Row Layer    Max.-Head-Change    Column Row Layer    Max.-Flux-Residual            L2-New               L2-Old           Solver-Max-Delh
          0                 1          11            81   45     1       0.2375648730E+01      70   47    1       0.7951508029E+05      0.5994595176E+06      0.8515177691E+02      0.2375648730E+01
          0                 2          10            19   42     2      -0.1015130974E+01      12    6    1      -0.1144601478E+05      0.6217701263E+05      0.5994595176E+06     -0.1015130974E+01
          0                 3           6            19   42     2       0.8924110904E-01      12    6    1       0.1132436525E+04      0.1496131807E+04      0.6217701263E+05      0.8924110904E-01
          0                 4           4            19   42     2       0.2772143816E-03      19   42    2       0.1673536783E+01      0.2347900904E+01      0.1496131807E+04      0.2772143816E-03

    ------------------------------------------------
       NWT REQUIRED            4 OUTER ITERATIONS 
       AND A TOTAL OF         31 INNER ITERATIONS.
    ------------------------------------------------

 NO OUTPUT CONTROL FOR STRESS PERIOD   18   TIME STEP    4
 
 SOLVING FOR HEAD 
                                                   Max.-Head-Change                        Max.-Flux-Residual
  Residual-Control   Outer-Iter.   Inner-Iter.     Column Row Layer    Max.-Head-Change    Column Row Layer    Max.-Flux-Residual            L2-New               L2-Old           Solver-Max-Delh
          0                 1          11            81   45     1       0.2077845099E+01      70   47    1       0.6827889390E+05      0.5762635273E+06      0.2347900904E+01      0.2077845099E+01
          0                 2          10            33   35     2      -0.1005488615E+01      70   47    1      -0.6869515745E+04      0.5779120868E+05      0.5762635273E+06     -0.1005488615E+01
          0                 3           6            33   35     2       0.7313429622E-01      19   46    2       0.3292422998E+03      0.4092063338E+03      0.5779120868E+05      0.7313429622E-01
          0                 4           3            33   35     2       0.1329790624E-02      33   35    2       0.1389061247E+01      0.1660427531E+01      0.4092063338E+03      0.1329790624E-02

    ------------------------------------------------
       NWT REQUIRED            4 OUTER ITERATIONS 
       AND A TOTAL OF         30 INNER ITERATIONS.
    ------------------------------------------------

 NO OUTPUT CONTROL FOR STRESS PERIOD   18   TIME STEP    5
 
 SOLVING FOR HEAD 
                                                   Max.-Head-Change                        Max.-Flux-Residual
  Residual-Control   Outer-Iter.   Inner-Iter.     Column Row Layer    Max.-Head-Change    Column Row Layer    Max.-Flux-Residual            L2-New               L2-Old           Solver-Max-Delh
          0                 1          11            33   35     2      -0.3518243255E+01      69   47    1       0.5884364322E+05      0.5597005933E+06      0.1660427531E+01     -0.3518243255E+01
          0                 2          10            64  111     1      -0.4062947093E+00      35   61    2       0.7737425220E+04      0.5675706237E+05      0.5597005933E+06     -0.4062947093E+00
          0                 3           6            64  111     1       0.3261796453E-01      64  111    1       0.9338110824E+02      0.1123215747E+03      0.5675706237E+05      0.3261796453E-01
          0                 4           2            64  111     1       0.3468367711E-03      64  111    1       0.9771180581E+00      0.9887385676E+00      0.1123215747E+03      0.3468367711E-03

    ------------------------------------------------
       NWT REQUIRED            4 OUTER ITERATIONS 
       AND A TOTAL OF         29 INNER ITERATIONS.
    ------------------------------------------------

 NO OUTPUT CONTROL FOR STRESS PERIOD   18   TIME STEP    6
 
 SOLVING FOR HEAD 
                                                   Max.-Head-Change                        Max.-Flux-Residual
  Residual-Control   Outer-Iter.   Inner-Iter.     Column Row Layer    Max.-Head-Change    Column Row Layer    Max.-Flux-Residual            L2-New               L2-Old           Solver-Max-Delh
          0                 1          11            81   46     1       0.1677988542E+01      81   46    1       0.5397563765E+05      0.5472782779E+06      0.9887385676E+00      0.1677988542E+01
          0                 2          10            32   19     2       0.1659954791E+00      32   19    2       0.8770032449E+04      0.5568217478E+05      0.5472782779E+06      0.1659954791E+00
          0                 3           7            17   41     3       0.1060570133E-01      17   41    3       0.4296551394E+03      0.4331143721E+03      0.5568217478E+05      0.1060570133E-01
          0                 4           2            71   46     1      -0.6328977455E-04      71   46    1      -0.2671141513E+00      0.3900762235E+00      0.4331143721E+03     -0.6328977455E-04

    ------------------------------------------------
       NWT REQUIRED            4 OUTER ITERATIONS 
       AND A TOTAL OF         30 INNER ITERATIONS.
    ------------------------------------------------

 NO OUTPUT CONTROL FOR STRESS PERIOD   18   TIME STEP    7
 
 SOLVING FOR HEAD 
                                                   Max.-Head-Change                        Max.-Flux-Residual
  Residual-Control   Outer-Iter.   Inner-Iter.     Column Row Layer    Max.-Head-Change    Column Row Layer    Max.-Flux-Residual            L2-New               L2-Old           Solver-Max-Delh
          0                 1          11            81   46     1       0.1629406399E+01      81   46    1       0.5245518794E+05      0.5376613907E+06      0.3900762235E+00      0.1629406399E+01
          0                 2          10            17   34     2      -0.5287772597E+00      17   41    3       0.1230234207E+05      0.5635703427E+05      0.5376613907E+06     -0.5287772597E+00
          0                 3           7            17   34     2       0.1500910299E+00      17   34    2       0.1721717663E+04      0.2356900234E+04      0.5635703427E+05      0.1500910299E+00
          0                 4           5            18   34     2      -0.1889618163E-02      18   34    2      -0.7844743907E+02      0.8036087455E+02      0.2356900234E+04     -0.1889618163E-02

    ------------------------------------------------
       NWT REQUIRED            4 OUTER ITERATIONS 
       AND A TOTAL OF         33 INNER ITERATIONS.
    ------------------------------------------------

 NO OUTPUT CONTROL FOR STRESS PERIOD   18   TIME STEP    8
 
 SOLVING FOR HEAD 
                                                   Max.-Head-Change                        Max.-Flux-Residual
  Residual-Control   Outer-Iter.   Inner-Iter.     Column Row Layer    Max.-Head-Change    Column Row Layer    Max.-Flux-Residual            L2-New               L2-Old           Solver-Max-Delh
          0                 1          11            81   46     1       0.1581104498E+01      81   46    1       0.5093694442E+05      0.5299267797E+06      0.8036087455E+02      0.1581104498E+01
          0                 2          10            23   31     1      -0.3951297171E+00      19   20    2       0.1146863404E+05      0.5634435769E+05      0.5299267797E+06     -0.3951297171E+00
          0                 3           8            21   49     2      -0.1055299916E+00      19   20    1      -0.5871392148E+04      0.7785486570E+04      0.5634435769E+05     -0.1055299916E+00
          0                 4           7            21   49     2      -0.8970616709E-02      19   20    1      -0.5290520569E+03      0.7067798863E+03      0.7785486570E+04     -0.8970616709E-02

    ------------------------------------------------
       NWT REQUIRED            4 OUTER ITERATIONS 
       AND A TOTAL OF         36 INNER ITERATIONS.
    ------------------------------------------------

 NO OUTPUT CONTROL FOR STRESS PERIOD   18   TIME STEP    9
 
 SOLVING FOR HEAD 
                                                   Max.-Head-Change                        Max.-Flux-Residual
  Residual-Control   Outer-Iter.   Inner-Iter.     Column Row Layer    Max.-Head-Change    Column Row Layer    Max.-Flux-Residual            L2-New               L2-Old           Solver-Max-Delh
          0                 1          11            81   46     1       0.1533259885E+01      81   46    1       0.4942745906E+05      0.5234002099E+06      0.7067798863E+03      0.1533259885E+01
          0                 2          10            13    7     1      -0.3163247377E+00      13    7    1      -0.1461889604E+05      0.5765509661E+05      0.5234002099E+06     -0.3163247377E+00
          0                 3           7            59   96     1      -0.7753030307E-01      59   96    1      -0.4125261329E+04      0.4684706068E+04      0.5765509661E+05     -0.7753030307E-01
          0                 4           5            59   96     1      -0.6987388816E-02      59   96    1      -0.3716431812E+03      0.3781859122E+03      0.4684706068E+04     -0.6987388816E-02

    ------------------------------------------------
       NWT REQUIRED            4 OUTER ITERATIONS 
       AND A TOTAL OF         33 INNER ITERATIONS.
    ------------------------------------------------

 NO OUTPUT CONTROL FOR STRESS PERIOD   18   TIME STEP   10
 
 SOLVING FOR HEAD 
                                                   Max.-Head-Change                        Max.-Flux-Residual
  Residual-Control   Outer-Iter.   Inner-Iter.     Column Row Layer    Max.-Head-Change    Column Row Layer    Max.-Flux-Residual            L2-New               L2-Old           Solver-Max-Delh
          0                 1          11            81   46     1       0.1486984969E+01      81   46    1       0.4793706238E+05      0.5184446009E+06      0.3781859122E+03      0.1486984969E+01
          0                 2          10            18   45     2      -0.4369806118E+00      18   45    2      -0.8263951679E+04      0.5330808641E+05      0.5184446009E+06     -0.4369806118E+00
          0                 3           6            18   45     2       0.3547005963E-01      18   45    2       0.8162923653E+03      0.1247870511E+04      0.5330808641E+05      0.3547005963E-01
          0                 4           4            19   45     3      -0.6056055351E-04      19   45    3      -0.2753043473E+01      0.4736266837E+01      0.1247870511E+04     -0.6056055351E-04

    ------------------------------------------------
       NWT REQUIRED            4 OUTER ITERATIONS 
       AND A TOTAL OF         31 INNER ITERATIONS.
    ------------------------------------------------

 NO OUTPUT CONTROL FOR STRESS PERIOD   18   TIME STEP   11
 
 SOLVING FOR HEAD 
                                                   Max.-Head-Change                        Max.-Flux-Residual
  Residual-Control   Outer-Iter.   Inner-Iter.     Column Row Layer    Max.-Head-Change    Column Row Layer    Max.-Flux-Residual            L2-New               L2-Old           Solver-Max-Delh
          0                 1          11            81   46     1       0.1439776285E+01      81   46    1       0.4645602481E+05      0.5146630764E+06      0.4736266837E+01      0.1439776285E+01
          0                 2          10            18   41     3       0.1432570831E+00      18   41    3       0.5476850144E+04      0.5195673895E+05      0.5146630764E+06      0.1432570831E+00
          0                 3           6            33   35     2       0.6418617376E-03      28   36    1       0.2445636466E+01      0.2400835703E+02      0.5195673895E+05      0.6418617376E-03

    ------------------------------------------------
       NWT REQUIRED            3 OUTER ITERATIONS 
       AND A TOTAL OF         27 INNER ITERATIONS.
    ------------------------------------------------

 OUTPUT CONTROL FOR STRESS PERIOD   18   TIME STEP   12
    SAVE BUDGET
 UBDSV1 SAVING "         STORAGE" ON UNIT  39 AT TIME STEP 12, STRESS PERIOD  18
 UBDSV2 SAVING "   CONSTANT HEAD" ON UNIT  39 AT TIME STEP 12, STRESS PERIOD  18
 UBDSV1 SAVING "FLOW RIGHT FACE " ON UNIT  39 AT TIME STEP 12, STRESS PERIOD  18
 UBDSV1 SAVING "FLOW FRONT FACE " ON UNIT  39 AT TIME STEP 12, STRESS PERIOD  18
 UBDSV1 SAVING "FLOW LOWER FACE " ON UNIT  39 AT TIME STEP 12, STRESS PERIOD  18
 UBDSV4 SAVING "           WELLS" ON UNIT  39 AT TIME STEP 12, STRESS PERIOD  18
 UBDSV3 SAVING "              ET" ON UNIT  39 AT TIME STEP 12, STRESS PERIOD  18
 UBDSV3 SAVING "        RECHARGE" ON UNIT  39 AT TIME STEP 12, STRESS PERIOD  18
1
  VOLUMETRIC BUDGET FOR ENTIRE MODEL AT END OF TIME STEP   12, STRESS PERIOD  18
  ------------------------------------------------------------------------------

     CUMULATIVE VOLUMES      L**3       RATES FOR THIS TIME STEP      L**3/T
     ------------------                 ------------------------

           IN:                                      IN:
           ---                                      ---
             STORAGE     = 79900246016.0000               STORAGE     =    24973388.0000
       CONSTANT HEAD     =  8376401920.0000         CONSTANT HEAD     =     1452914.2500
               WELLS     =  8058587136.0000                 WELLS     =     1225642.0000
                  ET     =           0.0000                    ET     =           0.0000
            RECHARGE     = 87877017600.0000              RECHARGE     =    14974722.0000

                TOTAL IN =184212258816.0000                  TOTAL IN =    42626664.0000

          OUT:                                     OUT:
          ----                                     ----
             STORAGE     =  7987630080.0000               STORAGE     =     1452136.3750
       CONSTANT HEAD     = 23501500416.0000         CONSTANT HEAD     =     3859572.7500
               WELLS     =145853579264.0000                 WELLS     =    36109832.0000
                  ET     =  6869406720.0000                    ET     =     1205128.1250
            RECHARGE     =           0.0000              RECHARGE     =           0.0000

               TOTAL OUT =184212111360.0000                 TOTAL OUT =    42626668.0000

                IN - OUT =      147456.0000                  IN - OUT =          -4.0000

     PERCENT DISCREPANCY =           0.00         PERCENT DISCREPANCY =          -0.00






         TIME SUMMARY AT END OF TIME STEP   12 IN STRESS PERIOD   18
                    SECONDS     MINUTES      HOURS       DAYS        YEARS
                    -----------------------------------------------------------
   TIME STEP LENGTH 2.62800E+06  43800.      730.00      30.417     8.32763E-02
 STRESS PERIOD TIME 3.15360E+07 5.25600E+05  8760.0      365.00     0.99932    
         TOTAL TIME 5.68080E+08 9.46799E+06 1.57800E+05  6575.0      18.001    
1
1
                            STRESS PERIOD NO.   19, LENGTH =   365.0000    
                            -----------------------------------------------

                              NUMBER OF TIME STEPS =    12

                               MULTIPLIER FOR DELT =     1.000

                            INITIAL TIME STEP SIZE =   30.41667    

   1708 WELLS

 REUSING SURF FROM LAST STRESS PERIOD

 REUSING EVTR FROM LAST STRESS PERIOD

 REUSING EXDP FROM LAST STRESS PERIOD



                           RECHARGE
 READING ON UNIT   16 WITH FORMAT: (15F5.0)            


     63 TIME-VARIANT SPECIFIED-HEAD CELLS
 
 SOLVING FOR HEAD 
                                                   Max.-Head-Change                        Max.-Flux-Residual
  Residual-Control   Outer-Iter.   Inner-Iter.     Column Row Layer    Max.-Head-Change    Column Row Layer    Max.-Flux-Residual            L2-New               L2-Old           Solver-Max-Delh
          0                 1          12            72   48     3       0.2511881184E+02      62   95    1      -0.2565599513E+06      0.1018802963E+07      0.2400835703E+02      0.2511881184E+02
          0                 2          10            72   48     3      -0.2233226009E+01      41   29    1      -0.4737320284E+05      0.1105634440E+06      0.1018802963E+07     -0.2233226009E+01
          0                 3           7            29   36     1      -0.6291025882E-01      29   36    1      -0.3490288745E+04      0.3553331168E+04      0.1105634440E+06     -0.6291025882E-01
          0                 4           6            29   36     1      -0.5671488359E-02      29   36    1      -0.3145038569E+03      0.3147394413E+03      0.3553331168E+04     -0.5671488359E-02

    ------------------------------------------------
       NWT REQUIRED            4 OUTER ITERATIONS 
       AND A TOTAL OF         35 INNER ITERATIONS.
    ------------------------------------------------

 NO OUTPUT CONTROL FOR STRESS PERIOD   19   TIME STEP    1
 
 SOLVING FOR HEAD 
                                                   Max.-Head-Change                        Max.-Flux-Residual
  Residual-Control   Outer-Iter.   Inner-Iter.     Column Row Layer    Max.-Head-Change    Column Row Layer    Max.-Flux-Residual            L2-New               L2-Old           Solver-Max-Delh
          0                 1          11            72   48     3       0.8395356058E+01      59  105    1      -0.1471465724E+06      0.6512466466E+06      0.3147394413E+03      0.8395356058E+01
          0                 2          10            72   48     3      -0.7631362025E+00      59  105    1       0.1548215780E+05      0.6771163915E+05      0.6512466466E+06     -0.7631362025E+00
          0                 3           6            29   36     1       0.4219443334E-01      29   36    1       0.1080993965E+04      0.1220112033E+04      0.6771163915E+05      0.4219443334E-01
          0                 4           3            83   58     1       0.2493292661E-03      29   36    1       0.1194080085E+01      0.2461921867E+01      0.1220112033E+04      0.2493292661E-03

    ------------------------------------------------
       NWT REQUIRED            4 OUTER ITERATIONS 
       AND A TOTAL OF         30 INNER ITERATIONS.
    ------------------------------------------------

 NO OUTPUT CONTROL FOR STRESS PERIOD   19   TIME STEP    2
 
 SOLVING FOR HEAD 
                                                   Max.-Head-Change                        Max.-Flux-Residual
  Residual-Control   Outer-Iter.   Inner-Iter.     Column Row Layer    Max.-Head-Change    Column Row Layer    Max.-Flux-Residual            L2-New               L2-Old           Solver-Max-Delh
          0                 1          11            72   48     3       0.3653952809E+01      62   95    1      -0.8241279062E+05      0.5493133210E+06      0.2461921867E+01      0.3653952809E+01
          0                 2          10            72   48     3      -0.3321607185E+00      13    6    2       0.9113439747E+04      0.5726568303E+05      0.5493133210E+06     -0.3321607185E+00
          0                 3           6            29   35     1      -0.5174052126E-01      29   35    1      -0.2313671678E+04      0.2446311611E+04      0.5726568303E+05     -0.5174052126E-01
          0                 4           5            29   35     1      -0.4661862297E-02      29   35    1      -0.2084068309E+03      0.2084157720E+03      0.2446311611E+04     -0.4661862297E-02

    ------------------------------------------------
       NWT REQUIRED            4 OUTER ITERATIONS 
       AND A TOTAL OF         32 INNER ITERATIONS.
    ------------------------------------------------

 NO OUTPUT CONTROL FOR STRESS PERIOD   19   TIME STEP    3
 
 SOLVING FOR HEAD 
                                                   Max.-Head-Change                        Max.-Flux-Residual
  Residual-Control   Outer-Iter.   Inner-Iter.     Column Row Layer    Max.-Head-Change    Column Row Layer    Max.-Flux-Residual            L2-New               L2-Old           Solver-Max-Delh
          0                 1          11            72   47     3       0.2040864606E+01      62   95    1      -0.5653950794E+05      0.5118586979E+06      0.2084157720E+03      0.2040864606E+01
          0                 2          10            29   35     1      -0.1082212172E+01      29   35    1      -0.1343206351E+05      0.5523953319E+05      0.5118586979E+06     -0.1082212172E+01
          0                 3           6            29   35     1       0.9610517437E-01      29   35    1       0.1313302125E+04      0.1924951682E+04      0.5523953319E+05      0.9610517437E-01
          0                 4           3            29   35     1       0.2050342984E-03      29   35    1       0.2660340481E+01      0.3344390717E+01      0.1924951682E+04      0.2050342984E-03

    ------------------------------------------------
       NWT REQUIRED            4 OUTER ITERATIONS 
       AND A TOTAL OF         30 INNER ITERATIONS.
    ------------------------------------------------

 NO OUTPUT CONTROL FOR STRESS PERIOD   19   TIME STEP    4
 
 SOLVING FOR HEAD 
                                                   Max.-Head-Change                        Max.-Flux-Residual
  Residual-Control   Outer-Iter.   Inner-Iter.     Column Row Layer    Max.-Head-Change    Column Row Layer    Max.-Flux-Residual            L2-New               L2-Old           Solver-Max-Delh
          0                 1          11            72   47     3       0.1414468603E+01      62   95    1      -0.4410077549E+05      0.4938452996E+06      0.3344390717E+01      0.1414468603E+01
          0                 2          10            77   46     2       0.3831826985E+00      12    4    2       0.7930389313E+04      0.5002795246E+05      0.4938452996E+06      0.3831826985E+00
          0                 3           6            77   46     2      -0.3483399407E-01      41   29    2       0.6208627764E+03      0.6801904657E+03      0.5002795246E+05     -0.3483399407E-01
          0                 4           4            41   29     2       0.4555961933E-03      41   29    2       0.5587596178E+02      0.5592558239E+02      0.6801904657E+03      0.4555961933E-03

    ------------------------------------------------
       NWT REQUIRED            4 OUTER ITERATIONS 
       AND A TOTAL OF         31 INNER ITERATIONS.
    ------------------------------------------------

 NO OUTPUT CONTROL FOR STRESS PERIOD   19   TIME STEP    5
 
 SOLVING FOR HEAD 
                                                   Max.-Head-Change                        Max.-Flux-Residual
  Residual-Control   Outer-Iter.   Inner-Iter.     Column Row Layer    Max.-Head-Change    Column Row Layer    Max.-Flux-Residual            L2-New               L2-Old           Solver-Max-Delh
          0                 1          11            77   46     2       0.1308453910E+01      62   95    1      -0.3724521583E+05      0.4835464667E+06      0.5592558239E+02      0.1308453910E+01
          0                 2          10            32   34     1      -0.7343725249E+00      41   29    2       0.1042823653E+05      0.5076023177E+05      0.4835464667E+06     -0.7343725249E+00
          0                 3           7            32   34     1       0.6320256988E-01      41   29    2      -0.1042823660E+04      0.1645835352E+04      0.5076023177E+05      0.6320256988E-01
          0                 4           4            32   34     1       0.3073237439E-03      32   34    1       0.1742624676E+01      0.2305031713E+01      0.1645835352E+04      0.3073237439E-03

    ------------------------------------------------
       NWT REQUIRED            4 OUTER ITERATIONS 
       AND A TOTAL OF         32 INNER ITERATIONS.
    ------------------------------------------------

 NO OUTPUT CONTROL FOR STRESS PERIOD   19   TIME STEP    6
 
 SOLVING FOR HEAD 
                                                   Max.-Head-Change                        Max.-Flux-Residual
  Residual-Control   Outer-Iter.   Inner-Iter.     Column Row Layer    Max.-Head-Change    Column Row Layer    Max.-Flux-Residual            L2-New               L2-Old           Solver-Max-Delh
          0                 1          11            32   34     1      -0.2378094732E+01      62   95    1      -0.3300077114E+05      0.4765533489E+06      0.2305031713E+01     -0.2378094732E+01
          0                 2          10            59   93     1      -0.4114049178E+00      12    3    2       0.8182732423E+04      0.4964368661E+05      0.4765533489E+06     -0.4114049178E+00
          0                 3           8            17   40     2      -0.5748582486E-01      17   40    2      -0.2105851005E+04      0.2171595309E+04      0.4964368661E+05     -0.5748582486E-01
          0                 4           6            17   40     2      -0.5186570055E-02      17   40    2      -0.1898999854E+03      0.1899979130E+03      0.2171595309E+04     -0.5186570055E-02

    ------------------------------------------------
       NWT REQUIRED            4 OUTER ITERATIONS 
       AND A TOTAL OF         35 INNER ITERATIONS.
    ------------------------------------------------

 NO OUTPUT CONTROL FOR STRESS PERIOD   19   TIME STEP    7
 
 SOLVING FOR HEAD 
                                                   Max.-Head-Change                        Max.-Flux-Residual
  Residual-Control   Outer-Iter.   Inner-Iter.     Column Row Layer    Max.-Head-Change    Column Row Layer    Max.-Flux-Residual            L2-New               L2-Old           Solver-Max-Delh
          0                 1          11            59   93     2      -0.1655647238E+01      62   95    1      -0.3013030769E+05      0.4712971307E+06      0.1899979130E+03     -0.1655647238E+01
          0                 2          10            17   40     2      -0.6044499385E+00      17   40    2      -0.8876200729E+04      0.4851863944E+05      0.4712971307E+06     -0.6044499385E+00
          0                 3           7            17   40     2       0.5890329414E-01      17   40    2       0.9653123728E+03      0.1075435557E+04      0.4851863944E+05      0.5890329414E-01
          0                 4           3            18   40     2      -0.2136722432E-03      18   40    2      -0.6466751013E+01      0.6705252390E+01      0.1075435557E+04     -0.2136722432E-03

    ------------------------------------------------
       NWT REQUIRED            4 OUTER ITERATIONS 
       AND A TOTAL OF         31 INNER ITERATIONS.
    ------------------------------------------------

 NO OUTPUT CONTROL FOR STRESS PERIOD   19   TIME STEP    8
 
 SOLVING FOR HEAD 
                                                   Max.-Head-Change                        Max.-Flux-Residual
  Residual-Control   Outer-Iter.   Inner-Iter.     Column Row Layer    Max.-Head-Change    Column Row Layer    Max.-Flux-Residual            L2-New               L2-Old           Solver-Max-Delh
          0                 1          11            25   47     2      -0.8332880445E+00      62   95    1      -0.2804761241E+05      0.4675285011E+06      0.6705252390E+01     -0.8332880445E+00
          0                 2          10            58   85     2      -0.4751653658E+00      19   43    3       0.5972291064E+04      0.4765802785E+05      0.4675285011E+06     -0.4751653658E+00
          0                 3           6            58   85     2       0.3908932991E-01      60   94    1      -0.1239678323E+04      0.1373228909E+04      0.4765802785E+05      0.3908932991E-01
          0                 4           3            60   94     1      -0.1867719927E-02      60   94    1      -0.1115943523E+03      0.1116176410E+03      0.1373228909E+04     -0.1867719927E-02

    ------------------------------------------------
       NWT REQUIRED            4 OUTER ITERATIONS 
       AND A TOTAL OF         30 INNER ITERATIONS.
    ------------------------------------------------

 NO OUTPUT CONTROL FOR STRESS PERIOD   19   TIME STEP    9
 
 SOLVING FOR HEAD 
                                                   Max.-Head-Change                        Max.-Flux-Residual
  Residual-Control   Outer-Iter.   Inner-Iter.     Column Row Layer    Max.-Head-Change    Column Row Layer    Max.-Flux-Residual            L2-New               L2-Old           Solver-Max-Delh
          0                 1          11            25   47     2      -0.8051626335E+00      12    7    2      -0.2662009553E+05      0.4644288027E+06      0.1116176410E+03     -0.8051626335E+00
          0                 2          10            60   94     1      -0.5651323953E+00      60   94    1      -0.1199655890E+05      0.4884918080E+05      0.4644288027E+06     -0.5651323953E+00
          0                 3           6            60   94     1       0.5049645334E-01      60   94    1       0.1180013997E+04      0.1474644047E+04      0.4884918080E+05      0.5049645334E-01
          0                 4           2            60   94     1       0.7519725964E-04      60   94    1       0.1648463652E+01      0.2183462904E+01      0.1474644047E+04      0.7519725964E-04

    ------------------------------------------------
       NWT REQUIRED            4 OUTER ITERATIONS 
       AND A TOTAL OF         29 INNER ITERATIONS.
    ------------------------------------------------

 NO OUTPUT CONTROL FOR STRESS PERIOD   19   TIME STEP   10
 
 SOLVING FOR HEAD 
                                                   Max.-Head-Change                        Max.-Flux-Residual
  Residual-Control   Outer-Iter.   Inner-Iter.     Column Row Layer    Max.-Head-Change    Column Row Layer    Max.-Flux-Residual            L2-New               L2-Old           Solver-Max-Delh
          0                 1          11            25   47     2      -0.7822797625E+00      12    7    2      -0.2659589825E+05      0.4622288451E+06      0.2183462904E+01     -0.7822797625E+00
          0                 2          10            68  102     1      -0.4977628809E+00      19   47    3       0.1011374391E+05      0.4743069824E+05      0.4622288451E+06     -0.4977628809E+00
          0                 3           6            68  102     1       0.3910869552E-01      19   43    2       0.2480859571E+03      0.3781267562E+03      0.4743069824E+05      0.3910869552E-01
          0                 4           3            68  102     1       0.4832805749E-03      68  102    1       0.1178382534E+01      0.1405660595E+01      0.3781267562E+03      0.4832805749E-03

    ------------------------------------------------
       NWT REQUIRED            4 OUTER ITERATIONS 
       AND A TOTAL OF         30 INNER ITERATIONS.
    ------------------------------------------------

 NO OUTPUT CONTROL FOR STRESS PERIOD   19   TIME STEP   11
 
 SOLVING FOR HEAD 
                                                   Max.-Head-Change                        Max.-Flux-Residual
  Residual-Control   Outer-Iter.   Inner-Iter.     Column Row Layer    Max.-Head-Change    Column Row Layer    Max.-Flux-Residual            L2-New               L2-Old           Solver-Max-Delh
          0                 1          11            37   32     1      -0.1529070556E+01      12    7    2      -0.2658545402E+05      0.4601295508E+06      0.1405660595E+01     -0.1529070556E+01
          0                 2          10            17   33     2      -0.7142401308E+00      24   29    2       0.7186798821E+04      0.4749736850E+05      0.4601295508E+06     -0.7142401308E+00
          0                 3           7            17   33     2       0.1173534114E+00      17   33    2       0.1213552604E+04      0.1377875927E+04      0.4749736850E+05      0.1173534114E+00
          0                 4           4            18   33     2      -0.1241562552E-02      18   33    2      -0.4481744427E+02      0.4592098454E+02      0.1377875927E+04     -0.1241562552E-02

    ------------------------------------------------
       NWT REQUIRED            4 OUTER ITERATIONS 
       AND A TOTAL OF         32 INNER ITERATIONS.
    ------------------------------------------------

 OUTPUT CONTROL FOR STRESS PERIOD   19   TIME STEP   12
    SAVE BUDGET
 UBDSV1 SAVING "         STORAGE" ON UNIT  39 AT TIME STEP 12, STRESS PERIOD  19
 UBDSV2 SAVING "   CONSTANT HEAD" ON UNIT  39 AT TIME STEP 12, STRESS PERIOD  19
 UBDSV1 SAVING "FLOW RIGHT FACE " ON UNIT  39 AT TIME STEP 12, STRESS PERIOD  19
 UBDSV1 SAVING "FLOW FRONT FACE " ON UNIT  39 AT TIME STEP 12, STRESS PERIOD  19
 UBDSV1 SAVING "FLOW LOWER FACE " ON UNIT  39 AT TIME STEP 12, STRESS PERIOD  19
 UBDSV4 SAVING "           WELLS" ON UNIT  39 AT TIME STEP 12, STRESS PERIOD  19
 UBDSV3 SAVING "              ET" ON UNIT  39 AT TIME STEP 12, STRESS PERIOD  19
 UBDSV3 SAVING "        RECHARGE" ON UNIT  39 AT TIME STEP 12, STRESS PERIOD  19
1
  VOLUMETRIC BUDGET FOR ENTIRE MODEL AT END OF TIME STEP   12, STRESS PERIOD  19
  ------------------------------------------------------------------------------

     CUMULATIVE VOLUMES      L**3       RATES FOR THIS TIME STEP      L**3/T
     ------------------                 ------------------------

           IN:                                      IN:
           ---                                      ---
             STORAGE     = 88263950336.0000               STORAGE     =    22333282.0000
       CONSTANT HEAD     =  8873684992.0000         CONSTANT HEAD     =     1346473.0000
               WELLS     =  8505944064.0000                 WELLS     =     1225642.0000
                  ET     =           0.0000                    ET     =           0.0000
            RECHARGE     = 94403420160.0000              RECHARGE     =    17880542.0000

                TOTAL IN =200047001600.0000                  TOTAL IN =    42785940.0000

          OUT:                                     OUT:
          ----                                     ----
             STORAGE     =  8589164032.0000               STORAGE     =     1063904.2500
       CONSTANT HEAD     = 24913369088.0000         CONSTANT HEAD     =     3862384.5000
               WELLS     =159264014336.0000                 WELLS     =    36740668.0000
                  ET     =  7280414720.0000                    ET     =     1118994.5000
            RECHARGE     =           0.0000              RECHARGE     =           0.0000

               TOTAL OUT =200046952448.0000                 TOTAL OUT =    42785952.0000

                IN - OUT =       49152.0000                  IN - OUT =         -12.0000

     PERCENT DISCREPANCY =           0.00         PERCENT DISCREPANCY =          -0.00






         TIME SUMMARY AT END OF TIME STEP   12 IN STRESS PERIOD   19
                    SECONDS     MINUTES      HOURS       DAYS        YEARS
                    -----------------------------------------------------------
   TIME STEP LENGTH 2.62800E+06  43800.      730.00      30.417     8.32763E-02
 STRESS PERIOD TIME 3.15360E+07 5.25600E+05  8760.0      365.00     0.99932    
         TOTAL TIME 5.99615E+08 9.99359E+06 1.66560E+05  6940.0      19.001    
1
1
                            STRESS PERIOD NO.   20, LENGTH =   365.0000    
                            -----------------------------------------------

                              NUMBER OF TIME STEPS =    12

                               MULTIPLIER FOR DELT =     1.000

                            INITIAL TIME STEP SIZE =   30.41667    

   1750 WELLS

 REUSING SURF FROM LAST STRESS PERIOD

 REUSING EVTR FROM LAST STRESS PERIOD

 REUSING EXDP FROM LAST STRESS PERIOD



                           RECHARGE
 READING ON UNIT   16 WITH FORMAT: (15F5.0)            


     63 TIME-VARIANT SPECIFIED-HEAD CELLS
 
 SOLVING FOR HEAD 
                                                   Max.-Head-Change                        Max.-Flux-Residual
  Residual-Control   Outer-Iter.   Inner-Iter.     Column Row Layer    Max.-Head-Change    Column Row Layer    Max.-Flux-Residual            L2-New               L2-Old           Solver-Max-Delh
          0                 1          11            65    2     2       0.1540219147E+03      70   19    1       0.2463187207E+06      0.1063113780E+07      0.4592098454E+02      0.1540219147E+03
          1                 1           0            65    2     2       0.1386197195E+03      65    7    2      -0.2237185985E+07      0.3504592773E+07      0.1063113780E+07      0.1540219147E+03
          2                 1           0            65    2     2       0.1247577443E+03      65    7    2      -0.1919921734E+07      0.2848552854E+07      0.3504592773E+07      0.1540219147E+03
          3                 1           0            65    2     2       0.1122819669E+03      65    7    2      -0.1637724277E+07      0.2332957366E+07      0.2848552854E+07      0.1540219147E+03
          0                 2          10            65    7     2      -0.4976981458E+02      65    7    2      -0.1386452265E+07      0.1929677844E+07      0.2332957366E+07     -0.4976981458E+02
          0                 3           9            65    2     2      -0.2516280293E+02      65    2    2      -0.6942648154E+06      0.8268484085E+06      0.1929677844E+07     -0.2516280293E+02
          0                 4           5            66    2     2       0.4533511265E+01      66    4    2      -0.1167321843E+05      0.1485184942E+05      0.8268484085E+06      0.4533511265E+01
          0                 5           3            66    2     2       0.6801328848E+00      66    4    2      -0.1997212918E+04      0.2084778127E+04      0.1485184942E+05      0.6801328848E+00
          0                 6           3            66    2     2       0.1001828470E+00      66    4    2      -0.3413545387E+03      0.3500681516E+03      0.2084778127E+04      0.1001828470E+00
          0                 7           2            66    2     2       0.1474692256E-01      66    4    2      -0.5830420171E+02      0.5925951467E+02      0.3500681516E+03      0.1474692256E-01
          0                 8           2            66    2     2       0.2169341092E-02      66    4    2      -0.9952546018E+01      0.1006328724E+02      0.5925951467E+02      0.2169341092E-02

    ------------------------------------------------
       NWT REQUIRED            8 OUTER ITERATIONS 
       AND A TOTAL OF         45 INNER ITERATIONS.
    ------------------------------------------------

 NO OUTPUT CONTROL FOR STRESS PERIOD   20   TIME STEP    1
 
 SOLVING FOR HEAD 
                                                   Max.-Head-Change                        Max.-Flux-Residual
  Residual-Control   Outer-Iter.   Inner-Iter.     Column Row Layer    Max.-Head-Change    Column Row Layer    Max.-Flux-Residual            L2-New               L2-Old           Solver-Max-Delh
          0                 1          11            70   19     2       0.7418225054E+01      70   19    2       0.2206215327E+06      0.8514691220E+06      0.1006328724E+02      0.7418225054E+01
          0                 2          10            72   15     1      -0.8749107291E+00      72   15    1      -0.2554314266E+05      0.9009274218E+05      0.8514691220E+06     -0.8749107291E+00
          0                 3           6            34   60     1       0.3644091472E-01      34   60    1       0.6204058866E+03      0.6426128516E+03      0.9009274218E+05      0.3644091472E-01
          0                 4           3            65    1     2      -0.1757489923E-03      61   79    1      -0.1305497259E+01      0.1794036461E+01      0.6426128516E+03     -0.1757489923E-03

    ------------------------------------------------
       NWT REQUIRED            4 OUTER ITERATIONS 
       AND A TOTAL OF         30 INNER ITERATIONS.
    ------------------------------------------------

 NO OUTPUT CONTROL FOR STRESS PERIOD   20   TIME STEP    2
 
 SOLVING FOR HEAD 
                                                   Max.-Head-Change                        Max.-Flux-Residual
  Residual-Control   Outer-Iter.   Inner-Iter.     Column Row Layer    Max.-Head-Change    Column Row Layer    Max.-Flux-Residual            L2-New               L2-Old           Solver-Max-Delh
          0                 1          11            70   19     2       0.6772102876E+01      70   19    2       0.2010381179E+06      0.7852351787E+06      0.1794036461E+01      0.6772102876E+01
          0                 2          10            36   17     2      -0.1593005345E+01      69   20    1      -0.5171594341E+05      0.9593543574E+05      0.7852351787E+06     -0.1593005345E+01
          0                 3           7            36   17     2       0.1260325339E+00      34   22    1       0.6056299838E+03      0.1017216330E+04      0.9593543574E+05      0.1260325339E+00
          0                 4           5            36   17     2       0.1546006639E-02      14   16    1      -0.2730398956E+02      0.2896403807E+02      0.1017216330E+04      0.1546006639E-02

    ------------------------------------------------
       NWT REQUIRED            4 OUTER ITERATIONS 
       AND A TOTAL OF         33 INNER ITERATIONS.
    ------------------------------------------------

 NO OUTPUT CONTROL FOR STRESS PERIOD   20   TIME STEP    3
 
 SOLVING FOR HEAD 
                                                   Max.-Head-Change                        Max.-Flux-Residual
  Residual-Control   Outer-Iter.   Inner-Iter.     Column Row Layer    Max.-Head-Change    Column Row Layer    Max.-Flux-Residual            L2-New               L2-Old           Solver-Max-Delh
          0                 1          11            70   19     2       0.6101108814E+01      70   19    2       0.1840247502E+06      0.7391929973E+06      0.2896403807E+02      0.6101108814E+01
          0                 2          10            70   19     1      -0.2606590371E+01      70   19    1      -0.9498063201E+05      0.1219771107E+06      0.7391929973E+06     -0.2606590371E+01
          0                 3           7            70   18     2       0.7026667666E+00      70   18    2       0.2763698445E+05      0.2777699968E+05      0.1219771107E+06      0.7026667666E+00
          0                 4           6            70   18     2       0.6318539661E-01      70   18    2       0.2485207151E+04      0.2494022134E+04      0.2777699968E+05      0.6318539661E-01
          0                 5           4            70   18     2       0.5680599742E-02      70   18    2       0.2234030805E+03      0.2241956491E+03      0.2494022134E+04      0.5680599742E-02

    ------------------------------------------------
       NWT REQUIRED            5 OUTER ITERATIONS 
       AND A TOTAL OF         38 INNER ITERATIONS.
    ------------------------------------------------

 NO OUTPUT CONTROL FOR STRESS PERIOD   20   TIME STEP    4
 
 SOLVING FOR HEAD 
                                                   Max.-Head-Change                        Max.-Flux-Residual
  Residual-Control   Outer-Iter.   Inner-Iter.     Column Row Layer    Max.-Head-Change    Column Row Layer    Max.-Flux-Residual            L2-New               L2-Old           Solver-Max-Delh
          0                 1          11            73   14     2       0.5373632007E+01      70   19    2       0.1516478208E+06      0.7049810016E+06      0.2241956491E+03      0.5373632007E+01
          0                 2          10            70   18     2       0.8375820722E+01      70   18    2       0.6500445531E+05      0.9733913782E+05      0.7049810016E+06      0.8375820722E+01
          0                 3           6            70   18     2      -0.8230679312E+00      70   18    2      -0.7244269221E+04      0.7605872250E+04      0.9733913782E+05     -0.8230679312E+00
          0                 4           3            70   19     2       0.8790658792E-03      70   19    2       0.4139449560E+02      0.5475730732E+02      0.7605872250E+04      0.8790658792E-03

    ------------------------------------------------
       NWT REQUIRED            4 OUTER ITERATIONS 
       AND A TOTAL OF         30 INNER ITERATIONS.
    ------------------------------------------------

 NO OUTPUT CONTROL FOR STRESS PERIOD   20   TIME STEP    5
 
 SOLVING FOR HEAD 
                                                   Max.-Head-Change                        Max.-Flux-Residual
  Residual-Control   Outer-Iter.   Inner-Iter.     Column Row Layer    Max.-Head-Change    Column Row Layer    Max.-Flux-Residual            L2-New               L2-Old           Solver-Max-Delh
          0                 1          11            73   14     2       0.5119820369E+01      73   14    2       0.1233379728E+06      0.6831377777E+06      0.5475730732E+02      0.5119820369E+01
          0                 2          10            73   15     2      -0.2860193939E+01      73   15    2      -0.8280925246E+05      0.1085246777E+06      0.6831377777E+06     -0.2860193939E+01
          0                 3           7            16   29     2      -0.4376848219E-01      16   29    2      -0.2297334325E+04      0.2329852095E+04      0.1085246777E+06     -0.4376848219E-01
          0                 4           5            16   29     2      -0.3942197763E-02      16   29    2      -0.2068618628E+03      0.2069029291E+03      0.2329852095E+04     -0.3942197763E-02

    ------------------------------------------------
       NWT REQUIRED            4 OUTER ITERATIONS 
       AND A TOTAL OF         33 INNER ITERATIONS.
    ------------------------------------------------

 NO OUTPUT CONTROL FOR STRESS PERIOD   20   TIME STEP    6
 
 SOLVING FOR HEAD 
                                                   Max.-Head-Change                        Max.-Flux-Residual
  Residual-Control   Outer-Iter.   Inner-Iter.     Column Row Layer    Max.-Head-Change    Column Row Layer    Max.-Flux-Residual            L2-New               L2-Old           Solver-Max-Delh
          0                 1          11            73   14     2       0.4846472182E+01      73   14    2       0.1172446006E+06      0.6637756418E+06      0.2069029291E+03      0.4846472182E+01
          0                 2          10            69   20     2       0.2152899299E+01      69   21    1      -0.6056506521E+05      0.9457342560E+05      0.6637756418E+06      0.2152899299E+01
          0                 3           7            71   16     2       0.6927083111E+00      71   16    2       0.2663837108E+05      0.2733526790E+05      0.9457342560E+05      0.6927083111E+00
          0                 4           4            71   16     2       0.6224343598E-01      71   16    2       0.2393920664E+04      0.2444192731E+04      0.2733526790E+05      0.6224343598E-01
          0                 5           3            71   16     2       0.5595528391E-02      71   16    2       0.2151850669E+03      0.2197056476E+03      0.2444192731E+04      0.5595528391E-02

    ------------------------------------------------
       NWT REQUIRED            5 OUTER ITERATIONS 
       AND A TOTAL OF         35 INNER ITERATIONS.
    ------------------------------------------------

 NO OUTPUT CONTROL FOR STRESS PERIOD   20   TIME STEP    7
 
 SOLVING FOR HEAD 
                                                   Max.-Head-Change                        Max.-Flux-Residual
  Residual-Control   Outer-Iter.   Inner-Iter.     Column Row Layer    Max.-Head-Change    Column Row Layer    Max.-Flux-Residual            L2-New               L2-Old           Solver-Max-Delh
          0                 1          11            73   14     2       0.4579358223E+01      73   14    2       0.1110735766E+06      0.6486573793E+06      0.2197056476E+03      0.4579358223E+01
          0                 2          10            71   16     2       0.9446907356E+01      71   16    2       0.6447863033E+05      0.9246275273E+05      0.6486573793E+06      0.9446907356E+01
          0                 3           6            71   16     2      -0.1017746369E+01      71   16    2      -0.8010011655E+04      0.8434205749E+04      0.9246275273E+05     -0.1017746369E+01
          0                 4           4            34   33     1      -0.4517335943E-02      71   15    2       0.1474196228E+03      0.1981651369E+03      0.8434205749E+04     -0.4517335943E-02

    ------------------------------------------------
       NWT REQUIRED            4 OUTER ITERATIONS 
       AND A TOTAL OF         31 INNER ITERATIONS.
    ------------------------------------------------

 NO OUTPUT CONTROL FOR STRESS PERIOD   20   TIME STEP    8
 
 SOLVING FOR HEAD 
                                                   Max.-Head-Change                        Max.-Flux-Residual
  Residual-Control   Outer-Iter.   Inner-Iter.     Column Row Layer    Max.-Head-Change    Column Row Layer    Max.-Flux-Residual            L2-New               L2-Old           Solver-Max-Delh
          0                 1          11            71   16     1       0.4422418722E+01      71   16    1       0.1130696705E+06      0.6409472089E+06      0.1981651369E+03      0.4422418722E+01
          0                 2          10            18   39     2      -0.1177563790E+01      64   28    1      -0.1639614279E+05      0.6781401628E+05      0.6409472089E+06     -0.1177563790E+01
          0                 3           7            18   39     2       0.1034235684E+00      18   39    2       0.6835375621E+03      0.1188862997E+04      0.6781401628E+05      0.1034235684E+00
          0                 4           4            18   39     2       0.3069742211E-03      18   39    2       0.1922506860E+01      0.2689944042E+01      0.1188862997E+04      0.3069742211E-03

    ------------------------------------------------
       NWT REQUIRED            4 OUTER ITERATIONS 
       AND A TOTAL OF         32 INNER ITERATIONS.
    ------------------------------------------------

 NO OUTPUT CONTROL FOR STRESS PERIOD   20   TIME STEP    9
 
 SOLVING FOR HEAD 
                                                   Max.-Head-Change                        Max.-Flux-Residual
  Residual-Control   Outer-Iter.   Inner-Iter.     Column Row Layer    Max.-Head-Change    Column Row Layer    Max.-Flux-Residual            L2-New               L2-Old           Solver-Max-Delh
          0                 1          11            71   16     1       0.4173657823E+01      71   16    1       0.1104672750E+06      0.6312695087E+06      0.2689944042E+01      0.4173657823E+01
          0                 2          10            73   14     1      -0.2784447546E+01      73   14    1      -0.9651422367E+05      0.1162077970E+06      0.6312695087E+06     -0.2784447546E+01
          0                 3           6            73   15     3      -0.1001283520E+00      73   15    3      -0.9728919974E+03      0.1268896586E+04      0.1162077970E+06     -0.1001283520E+00
          0                 4           2            72   14     1       0.4778249540E-03      72   14    1       0.3388063747E+01      0.4690358029E+01      0.1268896586E+04      0.4778249540E-03

    ------------------------------------------------
       NWT REQUIRED            4 OUTER ITERATIONS 
       AND A TOTAL OF         29 INNER ITERATIONS.
    ------------------------------------------------

 NO OUTPUT CONTROL FOR STRESS PERIOD   20   TIME STEP   10
 
 SOLVING FOR HEAD 
                                                   Max.-Head-Change                        Max.-Flux-Residual
  Residual-Control   Outer-Iter.   Inner-Iter.     Column Row Layer    Max.-Head-Change    Column Row Layer    Max.-Flux-Residual            L2-New               L2-Old           Solver-Max-Delh
          0                 1          11            73   15     3       0.8369794813E+01      71   16    1       0.1042749791E+06      0.6202684987E+06      0.4690358029E+01      0.8369794813E+01
          0                 2          10            66   25     1      -0.1058021620E+01      66   25    1      -0.5149367497E+05      0.8176509762E+05      0.6202684987E+06     -0.1058021620E+01
          0                 3           6            31   47     2       0.7683721583E-01      26   40    1       0.6161400639E+03      0.8606763185E+03      0.8176509762E+05      0.7683721583E-01
          0                 4           4            31   47     2       0.2045083772E-03      31   47    2       0.1261956623E+01      0.2204304595E+01      0.8606763185E+03      0.2045083772E-03

    ------------------------------------------------
       NWT REQUIRED            4 OUTER ITERATIONS 
       AND A TOTAL OF         31 INNER ITERATIONS.
    ------------------------------------------------

 NO OUTPUT CONTROL FOR STRESS PERIOD   20   TIME STEP   11
 
 SOLVING FOR HEAD 
                                                   Max.-Head-Change                        Max.-Flux-Residual
  Residual-Control   Outer-Iter.   Inner-Iter.     Column Row Layer    Max.-Head-Change    Column Row Layer    Max.-Flux-Residual            L2-New               L2-Old           Solver-Max-Delh
          0                 1          11            73   15     2       0.4100018834E+01      71   16    1       0.9849308149E+05      0.6143451979E+06      0.2204304595E+01      0.4100018834E+01
          0                 2          10            17   32     2      -0.3960889194E+00      71   16    1      -0.9928963864E+04      0.6269062356E+05      0.6143451979E+06     -0.3960889194E+00
          0                 3           6            17   32     2       0.3529296567E-01      23   32    1       0.5630175003E+03      0.8586405336E+03      0.6269062356E+05      0.3529296567E-01
          0                 4           3            66    2     2      -0.1020259981E-03      23   32    1       0.8439076990E+00      0.1403769409E+01      0.8586405336E+03     -0.1020259981E-03

    ------------------------------------------------
       NWT REQUIRED            4 OUTER ITERATIONS 
       AND A TOTAL OF         30 INNER ITERATIONS.
    ------------------------------------------------

 OUTPUT CONTROL FOR STRESS PERIOD   20   TIME STEP   12
    SAVE BUDGET
 UBDSV1 SAVING "         STORAGE" ON UNIT  39 AT TIME STEP 12, STRESS PERIOD  20
 UBDSV2 SAVING "   CONSTANT HEAD" ON UNIT  39 AT TIME STEP 12, STRESS PERIOD  20
 UBDSV1 SAVING "FLOW RIGHT FACE " ON UNIT  39 AT TIME STEP 12, STRESS PERIOD  20
 UBDSV1 SAVING "FLOW FRONT FACE " ON UNIT  39 AT TIME STEP 12, STRESS PERIOD  20
 UBDSV1 SAVING "FLOW LOWER FACE " ON UNIT  39 AT TIME STEP 12, STRESS PERIOD  20
 UBDSV4 SAVING "           WELLS" ON UNIT  39 AT TIME STEP 12, STRESS PERIOD  20
 UBDSV3 SAVING "              ET" ON UNIT  39 AT TIME STEP 12, STRESS PERIOD  20
 UBDSV3 SAVING "        RECHARGE" ON UNIT  39 AT TIME STEP 12, STRESS PERIOD  20
1
  VOLUMETRIC BUDGET FOR ENTIRE MODEL AT END OF TIME STEP   12, STRESS PERIOD  20
  ------------------------------------------------------------------------------

     CUMULATIVE VOLUMES      L**3       RATES FOR THIS TIME STEP      L**3/T
     ------------------                 ------------------------

           IN:                                      IN:
           ---                                      ---
             STORAGE     = 97018888192.0000               STORAGE     =    23592670.0000
       CONSTANT HEAD     =  9398875136.0000         CONSTANT HEAD     =     1476531.2500
               WELLS     =  8953300992.0000                 WELLS     =     1225642.0000
                  ET     =           0.0000                    ET     =           0.0000
            RECHARGE     =102061105152.0000              RECHARGE     =    20980054.0000

                TOTAL IN =217432162304.0000                  TOTAL IN =    47274896.0000

          OUT:                                     OUT:
          ----                                     ----
             STORAGE     = 10578789376.0000               STORAGE     =     5221614.0000
       CONSTANT HEAD     = 26323523584.0000         CONSTANT HEAD     =     3844390.0000
               WELLS     =172936921088.0000                 WELLS     =    37460224.0000
                  ET     =  7592857088.0000                    ET     =      748675.0000
            RECHARGE     =           0.0000              RECHARGE     =           0.0000

               TOTAL OUT =217432080384.0000                 TOTAL OUT =    47274904.0000

                IN - OUT =       81920.0000                  IN - OUT =          -8.0000

     PERCENT DISCREPANCY =           0.00         PERCENT DISCREPANCY =          -0.00






         TIME SUMMARY AT END OF TIME STEP   12 IN STRESS PERIOD   20
                    SECONDS     MINUTES      HOURS       DAYS        YEARS
                    -----------------------------------------------------------
   TIME STEP LENGTH 2.62800E+06  43800.      730.00      30.417     8.32763E-02
 STRESS PERIOD TIME 3.15360E+07 5.25600E+05  8760.0      365.00     0.99932    
         TOTAL TIME 6.31151E+08 1.05192E+07 1.75320E+05  7305.0      20.000    
1
1
                            STRESS PERIOD NO.   21, LENGTH =   366.0000    
                            -----------------------------------------------

                              NUMBER OF TIME STEPS =    12

                               MULTIPLIER FOR DELT =     1.000

                            INITIAL TIME STEP SIZE =   30.50000    

   1825 WELLS

 REUSING SURF FROM LAST STRESS PERIOD

 REUSING EVTR FROM LAST STRESS PERIOD

 REUSING EXDP FROM LAST STRESS PERIOD



                           RECHARGE
 READING ON UNIT   16 WITH FORMAT: (15F5.0)            


     63 TIME-VARIANT SPECIFIED-HEAD CELLS
 
 SOLVING FOR HEAD 
                                                   Max.-Head-Change                        Max.-Flux-Residual
  Residual-Control   Outer-Iter.   Inner-Iter.     Column Row Layer    Max.-Head-Change    Column Row Layer    Max.-Flux-Residual            L2-New               L2-Old           Solver-Max-Delh
          0                 1          11            65    1     2      -0.4705245466E+02      58  101    3      -0.3243069970E+06      0.1157900236E+07      0.1403769409E+01     -0.4705245466E+02
          0                 2          10            66   14     1       0.2197528830E+01      58  101    3       0.3543262745E+05      0.1180329376E+06      0.1157900236E+07      0.2197528830E+01
          0                 3           6            66   25     1       0.1226615344E+00      66   25    1       0.1746836575E+04      0.2198886931E+04      0.1180329376E+06      0.1226615344E+00
          0                 4           4            66    3     2       0.3250904992E-02      63   95    1       0.1941207591E+02      0.3020479876E+02      0.2198886931E+04      0.3250904992E-02

    ------------------------------------------------
       NWT REQUIRED            4 OUTER ITERATIONS 
       AND A TOTAL OF         31 INNER ITERATIONS.
    ------------------------------------------------

 NO OUTPUT CONTROL FOR STRESS PERIOD   21   TIME STEP    1
 
 SOLVING FOR HEAD 
                                                   Max.-Head-Change                        Max.-Flux-Residual
  Residual-Control   Outer-Iter.   Inner-Iter.     Column Row Layer    Max.-Head-Change    Column Row Layer    Max.-Flux-Residual            L2-New               L2-Old           Solver-Max-Delh
          0                 1          11            51  103     3       0.3877760129E+01      70   19    1      -0.1134003232E+06      0.7184883592E+06      0.3020479876E+02      0.3877760129E+01
          0                 2          10            69   21     1      -0.9440523392E+01      69   21    1      -0.4497665920E+05      0.9030664058E+05      0.7184883592E+06     -0.9440523392E+01
          0                 3           6            69   21     1       0.9012484450E+00      69   21    1       0.5620964171E+04      0.8380209491E+04      0.9030664058E+05      0.9012484450E+00
          0                 4           3            69   21     1       0.5104496874E-02      69   20    1       0.5368723967E+02      0.6506240949E+02      0.8380209491E+04      0.5104496874E-02

    ------------------------------------------------
       NWT REQUIRED            4 OUTER ITERATIONS 
       AND A TOTAL OF         30 INNER ITERATIONS.
    ------------------------------------------------

 NO OUTPUT CONTROL FOR STRESS PERIOD   21   TIME STEP    2
 
 SOLVING FOR HEAD 
                                                   Max.-Head-Change                        Max.-Flux-Residual
  Residual-Control   Outer-Iter.   Inner-Iter.     Column Row Layer    Max.-Head-Change    Column Row Layer    Max.-Flux-Residual            L2-New               L2-Old           Solver-Max-Delh
          0                 1          11            69   21     1      -0.7502608411E+01      58  101    2      -0.9014086199E+05      0.6327555582E+06      0.6506240949E+02     -0.7502608411E+01
          0                 2          10            65    2     2      -0.7702443720E+02      65    2    2      -0.3120541953E+05      0.7139043190E+05      0.6327555582E+06     -0.7702443720E+02
          0                 3           7            65    2     2       0.2495199696E+01      25   38    1      -0.6001347826E+04      0.6899268205E+04      0.7139043190E+05      0.2495199696E+01
          0                 4           6            65    2     2       0.1407107686E+00      25   38    1      -0.5408066367E+03      0.5449561513E+03      0.6899268205E+04      0.1407107686E+00
          0                 5           5            65    2     2       0.7928684259E-02      25   38    1      -0.4862392060E+02      0.4908781633E+02      0.5449561513E+03      0.7928684259E-02

    ------------------------------------------------
       NWT REQUIRED            5 OUTER ITERATIONS 
       AND A TOTAL OF         39 INNER ITERATIONS.
    ------------------------------------------------

 NO OUTPUT CONTROL FOR STRESS PERIOD   21   TIME STEP    3
 
 SOLVING FOR HEAD 
                                                   Max.-Head-Change                        Max.-Flux-Residual
  Residual-Control   Outer-Iter.   Inner-Iter.     Column Row Layer    Max.-Head-Change    Column Row Layer    Max.-Flux-Residual            L2-New               L2-Old           Solver-Max-Delh
          0                 1          11            66    1     2      -0.6347139650E+02      58  101    2      -0.8053790425E+05      0.5900714632E+06      0.4908781633E+02     -0.6347139650E+02
          0                 2          10            66    1     2       0.1728783939E+01      72   15    2       0.3619446379E+05      0.7108091570E+05      0.5900714632E+06      0.1728783939E+01
          0                 3           7            66    1     2       0.1085598677E+00      21   50    2      -0.4583388233E+04      0.4667512052E+04      0.7108091570E+05      0.1085598677E+00
          0                 4           6            21   50     2      -0.8237262624E-02      21   50    2      -0.4127642554E+03      0.4128282661E+03      0.4667512052E+04     -0.8237262624E-02

    ------------------------------------------------
       NWT REQUIRED            4 OUTER ITERATIONS 
       AND A TOTAL OF         34 INNER ITERATIONS.
    ------------------------------------------------

 NO OUTPUT CONTROL FOR STRESS PERIOD   21   TIME STEP    4
 
 SOLVING FOR HEAD 
                                                   Max.-Head-Change                        Max.-Flux-Residual
  Residual-Control   Outer-Iter.   Inner-Iter.     Column Row Layer    Max.-Head-Change    Column Row Layer    Max.-Flux-Residual            L2-New               L2-Old           Solver-Max-Delh
          0                 1          11            51  103     3       0.3725173325E+01      51  103    3       0.7850791937E+05      0.5602482083E+06      0.4128282661E+03      0.3725173325E+01
          0                 2          10            66    4     2      -0.1319488968E+01      51  103    3      -0.7887021810E+04      0.5678590004E+05      0.5602482083E+06     -0.1319488968E+01
          0                 3           6            66    4     2       0.4300625266E-01      21   50    2       0.6158766019E+03      0.6392049543E+03      0.5678590004E+05      0.4300625266E-01
          0                 4           2            66    4     2       0.2522930160E-02      66    4    2       0.1088347023E+01      0.1294453436E+01      0.6392049543E+03      0.2522930160E-02

    ------------------------------------------------
       NWT REQUIRED            4 OUTER ITERATIONS 
       AND A TOTAL OF         29 INNER ITERATIONS.
    ------------------------------------------------

 NO OUTPUT CONTROL FOR STRESS PERIOD   21   TIME STEP    5
 
 SOLVING FOR HEAD 
                                                   Max.-Head-Change                        Max.-Flux-Residual
  Residual-Control   Outer-Iter.   Inner-Iter.     Column Row Layer    Max.-Head-Change    Column Row Layer    Max.-Flux-Residual            L2-New               L2-Old           Solver-Max-Delh
          0                 1          11            66    4     2      -0.1098974174E+02      51  103    3       0.7741545644E+05      0.5398227101E+06      0.1294453436E+01     -0.1098974174E+02
          0                 2          10            65    6     2      -0.3678342507E+02      65    6    2      -0.2081866023E+05      0.5866572672E+05      0.5398227101E+06     -0.3678342507E+02
          0                 3           6            65    6     2       0.2907804430E+01      65    6    3      -0.2019412798E+04      0.2929244745E+04      0.5866572672E+05      0.2907804430E+01
          0                 4           3            65    6     2       0.1109896352E+00      65    6    2       0.7376768097E+02      0.9498855148E+02      0.2929244745E+04      0.1109896352E+00
          0                 5           2            65    6     2       0.4215780756E-02      65    6    3       0.6027780320E+01      0.8268041997E+01      0.9498855148E+02      0.4215780756E-02

    ------------------------------------------------
       NWT REQUIRED            5 OUTER ITERATIONS 
       AND A TOTAL OF         32 INNER ITERATIONS.
    ------------------------------------------------

 NO OUTPUT CONTROL FOR STRESS PERIOD   21   TIME STEP    6
 
 SOLVING FOR HEAD 
                                                   Max.-Head-Change                        Max.-Flux-Residual
  Residual-Control   Outer-Iter.   Inner-Iter.     Column Row Layer    Max.-Head-Change    Column Row Layer    Max.-Flux-Residual            L2-New               L2-Old           Solver-Max-Delh
          0                 1          11            65    6     2      -0.4617597618E+01      51  103    3       0.7628863225E+05      0.5238791162E+06      0.8268041997E+01     -0.4617597618E+01
          0                 2          10            65    3     2      -0.2117711688E+02      65    3    2      -0.8510312783E+04      0.5345044252E+05      0.5238791162E+06     -0.2117711688E+02
          0                 3           6            65    3     2       0.8191073151E+00      65    3    3      -0.8200778856E+03      0.1011135783E+04      0.5345044252E+05      0.8191073151E+00
          0                 4           3            65    3     2       0.4249680025E-01      65    3    2       0.2074348498E+02      0.2196942949E+02      0.1011135783E+04      0.4249680025E-01
          0                 5           2            65    3     2       0.2200725313E-02      65    3    3       0.1648513880E+01      0.2038206578E+01      0.2196942949E+02      0.2200725313E-02

    ------------------------------------------------
       NWT REQUIRED            5 OUTER ITERATIONS 
       AND A TOTAL OF         32 INNER ITERATIONS.
    ------------------------------------------------

 NO OUTPUT CONTROL FOR STRESS PERIOD   21   TIME STEP    7
 
 SOLVING FOR HEAD 
                                                   Max.-Head-Change                        Max.-Flux-Residual
  Residual-Control   Outer-Iter.   Inner-Iter.     Column Row Layer    Max.-Head-Change    Column Row Layer    Max.-Flux-Residual            L2-New               L2-Old           Solver-Max-Delh
          0                 1          11            65    3     2      -0.1584917478E+02      51  103    3       0.7513083741E+05      0.5115582069E+06      0.2038206578E+01     -0.1584917478E+02
          0                 2          10            21   46     2      -0.1237623431E+01      14    6    2       0.1206492779E+05      0.5327487436E+05      0.5115582069E+06     -0.1237623431E+01
          0                 3           7            21   46     2       0.1093128047E+00      14    7    2       0.1415550254E+04      0.1597341431E+04      0.5327487436E+05      0.1093128047E+00
          0                 4           4            65    3     2       0.1487202980E-02      21   46    2       0.1767111227E+01      0.2116376000E+01      0.1597341431E+04      0.1487202980E-02

    ------------------------------------------------
       NWT REQUIRED            4 OUTER ITERATIONS 
       AND A TOTAL OF         32 INNER ITERATIONS.
    ------------------------------------------------

 NO OUTPUT CONTROL FOR STRESS PERIOD   21   TIME STEP    8
 
 SOLVING FOR HEAD 
                                                   Max.-Head-Change                        Max.-Flux-Residual
  Residual-Control   Outer-Iter.   Inner-Iter.     Column Row Layer    Max.-Head-Change    Column Row Layer    Max.-Flux-Residual            L2-New               L2-Old           Solver-Max-Delh
          0                 1          11            51  103     3       0.3499431110E+01      51  103    3       0.7394547088E+05      0.5021799250E+06      0.2116376000E+01      0.3499431110E+01
          0                 2          10            65    5     2      -0.3256205515E+02      70   19    1      -0.2253271714E+05      0.6021466927E+05      0.5021799250E+06     -0.3256205515E+02
          0                 3           6            65    5     2       0.2375093274E+01      14    7    1      -0.2350476083E+04      0.3903109283E+04      0.6021466927E+05      0.2375093274E+01
          0                 4           5            65    5     2       0.1057898068E+00      14    7    1      -0.2116111671E+03      0.2253840992E+03      0.3903109283E+04      0.1057898068E+00
          0                 5           3            65    5     2       0.4689334421E-02      14    7    1      -0.1902440576E+02      0.2026664343E+02      0.2253840992E+03      0.4689334421E-02

    ------------------------------------------------
       NWT REQUIRED            5 OUTER ITERATIONS 
       AND A TOTAL OF         35 INNER ITERATIONS.
    ------------------------------------------------

 NO OUTPUT CONTROL FOR STRESS PERIOD   21   TIME STEP    9
 
 SOLVING FOR HEAD 
                                                   Max.-Head-Change                        Max.-Flux-Residual
  Residual-Control   Outer-Iter.   Inner-Iter.     Column Row Layer    Max.-Head-Change    Column Row Layer    Max.-Flux-Residual            L2-New               L2-Old           Solver-Max-Delh
          0                 1          11            65    5     2      -0.7054291307E+01      51  103    3       0.7273593996E+05      0.4945107791E+06      0.2026664343E+02     -0.7054291307E+01
          0                 2          10            51  103     3      -0.3137900754E+00      14    7    1      -0.1163469948E+05      0.5112821277E+05      0.4945107791E+06     -0.3137900754E+00
          0                 3           6            14    7     1       0.2409638160E-01      14    7    1       0.1149476296E+04      0.1299721019E+04      0.5112821277E+05      0.2409638160E-01
          0                 4           3            65    5     2       0.5990216598E-03      14    7    1       0.9647204727E+00      0.1295060414E+01      0.1299721019E+04      0.5990216598E-03

    ------------------------------------------------
       NWT REQUIRED            4 OUTER ITERATIONS 
       AND A TOTAL OF         30 INNER ITERATIONS.
    ------------------------------------------------

 NO OUTPUT CONTROL FOR STRESS PERIOD   21   TIME STEP   10
 
 SOLVING FOR HEAD 
                                                   Max.-Head-Change                        Max.-Flux-Residual
  Residual-Control   Outer-Iter.   Inner-Iter.     Column Row Layer    Max.-Head-Change    Column Row Layer    Max.-Flux-Residual            L2-New               L2-Old           Solver-Max-Delh
          0                 1          11            51  103     3       0.3379942585E+01      51  103    3       0.7150563796E+05      0.4888462556E+06      0.1295060414E+01      0.3379942585E+01
          0                 2          10            51  103     3      -0.3082763295E+00      31   20    2       0.1273530132E+05      0.5261499509E+05      0.4888462556E+06     -0.3082763295E+00
          0                 3           6            32   24     1       0.2443308776E-01      32   24    1       0.7917199938E+03      0.9463320314E+03      0.5261499509E+05      0.2443308776E-01
          0                 4           3            66    7     2       0.4189409195E-04      32   24    1       0.1036325462E+01      0.1507465010E+01      0.9463320314E+03      0.4189409195E-04

    ------------------------------------------------
       NWT REQUIRED            4 OUTER ITERATIONS 
       AND A TOTAL OF         30 INNER ITERATIONS.
    ------------------------------------------------

 NO OUTPUT CONTROL FOR STRESS PERIOD   21   TIME STEP   11

 INTERPOLATION FOR HEAD OBS# 1737, ID 2615-21-353  CHANGED BECAUSE AT LEAST ONE
 NEIGHBORING CELL REQUIRED FOR INTERPOLATION IS DRY OR INACTIVE (OBS2BAS7SE)
 
 SOLVING FOR HEAD 
                                                   Max.-Head-Change                        Max.-Flux-Residual
  Residual-Control   Outer-Iter.   Inner-Iter.     Column Row Layer    Max.-Head-Change    Column Row Layer    Max.-Flux-Residual            L2-New               L2-Old           Solver-Max-Delh
          0                 1          11            51  103     3       0.3319109069E+01      51  103    3       0.7025791006E+05      0.4831818025E+06      0.1507465010E+01      0.3319109069E+01
          0                 2          10            51  103     3      -0.3027016851E+00      51  103    3      -0.7053394768E+04      0.4833091125E+05      0.4831818025E+06     -0.3027016851E+00
          0                 3           6            64   43     1       0.1097793012E-02      64   43    1       0.1433539788E+02      0.3605858762E+02      0.4833091125E+05      0.1097793012E-02

    ------------------------------------------------
       NWT REQUIRED            3 OUTER ITERATIONS 
       AND A TOTAL OF         27 INNER ITERATIONS.
    ------------------------------------------------

 OUTPUT CONTROL FOR STRESS PERIOD   21   TIME STEP   12
    SAVE BUDGET
    SAVE HEAD FOR LAYERS:   1  2  3
 UBDSV1 SAVING "         STORAGE" ON UNIT  39 AT TIME STEP 12, STRESS PERIOD  21
 UBDSV2 SAVING "   CONSTANT HEAD" ON UNIT  39 AT TIME STEP 12, STRESS PERIOD  21
 UBDSV1 SAVING "FLOW RIGHT FACE " ON UNIT  39 AT TIME STEP 12, STRESS PERIOD  21
 UBDSV1 SAVING "FLOW FRONT FACE " ON UNIT  39 AT TIME STEP 12, STRESS PERIOD  21
 UBDSV1 SAVING "FLOW LOWER FACE " ON UNIT  39 AT TIME STEP 12, STRESS PERIOD  21
 UBDSV4 SAVING "           WELLS" ON UNIT  39 AT TIME STEP 12, STRESS PERIOD  21
 UBDSV3 SAVING "              ET" ON UNIT  39 AT TIME STEP 12, STRESS PERIOD  21
 UBDSV3 SAVING "        RECHARGE" ON UNIT  39 AT TIME STEP 12, STRESS PERIOD  21

 INTERPOLATION FOR HEAD OBS# 1078, ID 2927-22-17   CHANGED BECAUSE AT LEAST ONE
 NEIGHBORING CELL REQUIRED FOR INTERPOLATION IS DRY OR INACTIVE (OBS2BAS7SE)

 INTERPOLATION FOR HEAD OBS# 3400, ID 1428-22-12   CHANGED BECAUSE AT LEAST ONE
 NEIGHBORING CELL REQUIRED FOR INTERPOLATION IS DRY OR INACTIVE (OBS2BAS7SE)

 INTERPOLATION FOR HEAD OBS# 3706, ID 1471-22-26   CHANGED BECAUSE AT LEAST ONE
 NEIGHBORING CELL REQUIRED FOR INTERPOLATION IS DRY OR INACTIVE (OBS2BAS7SE)

 INTERPOLATION FOR HEAD OBS# 3774, ID 1349-22-30   CHANGED BECAUSE AT LEAST ONE
 NEIGHBORING CELL REQUIRED FOR INTERPOLATION IS DRY OR INACTIVE (OBS2BAS7SE)

 HEAD WILL BE SAVED ON UNIT   31 AT END OF TIME STEP   12, STRESS PERIOD   21
1
  VOLUMETRIC BUDGET FOR ENTIRE MODEL AT END OF TIME STEP   12, STRESS PERIOD  21
  ------------------------------------------------------------------------------

     CUMULATIVE VOLUMES      L**3       RATES FOR THIS TIME STEP      L**3/T
     ------------------                 ------------------------

           IN:                                      IN:
           ---                                      ---
             STORAGE     =106119380992.0000               STORAGE     =    23958314.0000
       CONSTANT HEAD     =  9912507392.0000         CONSTANT HEAD     =     1374400.1250
               WELLS     =  9401886720.0000                 WELLS     =     1225642.0000
                  ET     =           0.0000                    ET     =           0.0000
            RECHARGE     =109100064768.0000              RECHARGE     =    19232074.0000

                TOTAL IN =234533847040.0000                  TOTAL IN =    45790432.0000

          OUT:                                     OUT:
          ----                                     ----
             STORAGE     = 11371389952.0000               STORAGE     =     1218483.5000
       CONSTANT HEAD     = 27737556992.0000         CONSTANT HEAD     =     3897490.0000
               WELLS     =187512094720.0000                 WELLS     =    39756512.0000
                  ET     =  7912692224.0000                    ET     =      917949.8125
            RECHARGE     =           0.0000              RECHARGE     =           0.0000

               TOTAL OUT =234533732352.0000                 TOTAL OUT =    45790432.0000

                IN - OUT =      114688.0000                  IN - OUT =           0.0000

     PERCENT DISCREPANCY =           0.00         PERCENT DISCREPANCY =           0.00






         TIME SUMMARY AT END OF TIME STEP   12 IN STRESS PERIOD   21
                    SECONDS     MINUTES      HOURS       DAYS        YEARS
                    -----------------------------------------------------------
   TIME STEP LENGTH 2.63520E+06  43920.      732.00      30.500     8.35044E-02
 STRESS PERIOD TIME 3.16224E+07 5.27040E+05  8784.0      366.00      1.0021    
         TOTAL TIME 6.62774E+08 1.10462E+07 1.84104E+05  7671.0      21.002    
1
1
                            STRESS PERIOD NO.   22, LENGTH =   365.0000    
                            -----------------------------------------------

                              NUMBER OF TIME STEPS =    12

                               MULTIPLIER FOR DELT =     1.000

                            INITIAL TIME STEP SIZE =   30.41667    

   1856 WELLS

 REUSING SURF FROM LAST STRESS PERIOD

 REUSING EVTR FROM LAST STRESS PERIOD

 REUSING EXDP FROM LAST STRESS PERIOD



                           RECHARGE
 READING ON UNIT   16 WITH FORMAT: (15F5.0)            


     63 TIME-VARIANT SPECIFIED-HEAD CELLS
 
 SOLVING FOR HEAD 
                                                   Max.-Head-Change                        Max.-Flux-Residual
  Residual-Control   Outer-Iter.   Inner-Iter.     Column Row Layer    Max.-Head-Change    Column Row Layer    Max.-Flux-Residual            L2-New               L2-Old           Solver-Max-Delh
          0                 1          11            65    2     2       0.1085137369E+03      18   17    2       0.2802126943E+06      0.9978004121E+06      0.3605858762E+02      0.1085137369E+03
          0                 2          10            65    5     2      -0.2379430956E+02      65    5    2      -0.6362893783E+06      0.9499373136E+06      0.9978004121E+06     -0.2379430956E+02
          0                 3           7            66    5     2       0.3177741455E+01      65    5    2      -0.6915882421E+04      0.9140484699E+04      0.9499373136E+06      0.3177741455E+01
          0                 4           4            66    5     2       0.4854817035E+00      65    4    2       0.3156987281E+03      0.4589448285E+03      0.9140484699E+04      0.4854817035E+00
          0                 5           3            66    5     2       0.7303928761E-01      66    5    2       0.3040825147E+02      0.5082930949E+02      0.4589448285E+03      0.7303928761E-01
          0                 6           2            66    5     2       0.1098179043E-01      66    5    2       0.4571736647E+01      0.6218802081E+01      0.5082930949E+02      0.1098179043E-01
          0                 7           2            66    5     2       0.1650123988E-02      66    5    2       0.6869031745E+00      0.8290775522E+00      0.6218802081E+01      0.1650123988E-02

    ------------------------------------------------
       NWT REQUIRED            7 OUTER ITERATIONS 
       AND A TOTAL OF         39 INNER ITERATIONS.
    ------------------------------------------------

 NO OUTPUT CONTROL FOR STRESS PERIOD   22   TIME STEP    1

 INTERPOLATION FOR HEAD OBS# 1564, ID 2931-22-31   CHANGED BECAUSE AT LEAST ONE
 NEIGHBORING CELL REQUIRED FOR INTERPOLATION IS DRY OR INACTIVE (OBS2BAS7SE)

 INTERPOLATION FOR HEAD OBS# 3750, ID 1427-22-31   CHANGED BECAUSE AT LEAST ONE
 NEIGHBORING CELL REQUIRED FOR INTERPOLATION IS DRY OR INACTIVE (OBS2BAS7SE)

 INTERPOLATION FOR HEAD OBS# 5425, ID 846-22-33    CHANGED BECAUSE AT LEAST ONE
 NEIGHBORING CELL REQUIRED FOR INTERPOLATION IS DRY OR INACTIVE (OBS2BAS7SE)

 INTERPOLATION FOR HEAD OBS# 5686, ID 1168-22-32   CHANGED BECAUSE AT LEAST ONE
 NEIGHBORING CELL REQUIRED FOR INTERPOLATION IS DRY OR INACTIVE (OBS2BAS7SE)

 INTERPOLATION FOR HEAD OBS# 6260, ID 987-22-33    CHANGED BECAUSE AT LEAST ONE
 NEIGHBORING CELL REQUIRED FOR INTERPOLATION IS DRY OR INACTIVE (OBS2BAS7SE)
 
 SOLVING FOR HEAD 
                                                   Max.-Head-Change                        Max.-Flux-Residual
  Residual-Control   Outer-Iter.   Inner-Iter.     Column Row Layer    Max.-Head-Change    Column Row Layer    Max.-Flux-Residual            L2-New               L2-Old           Solver-Max-Delh
          0                 1          11            51  103     3       0.4925443095E+01      72   15    1       0.1085716342E+06      0.6923696339E+06      0.8290775522E+00      0.4925443095E+01
          0                 2          10            64   28     1      -0.8872205729E+00      64   28    1      -0.4283553646E+05      0.8228245316E+05      0.6923696339E+06     -0.8872205729E+00
          0                 3           6            31   21     1       0.3486190725E-01      31   21    1       0.9214978156E+03      0.1012903631E+04      0.8228245316E+05      0.3486190725E-01
          0                 4           3            60   61     1       0.1806028424E-03      60   61    1       0.1495792836E+02      0.1530476142E+02      0.1012903631E+04      0.1806028424E-03

    ------------------------------------------------
       NWT REQUIRED            4 OUTER ITERATIONS 
       AND A TOTAL OF         30 INNER ITERATIONS.
    ------------------------------------------------

 NO OUTPUT CONTROL FOR STRESS PERIOD   22   TIME STEP    2

 INTERPOLATION FOR HEAD OBS# 3192, ID 2435-22-72   CHANGED BECAUSE AT LEAST ONE
 NEIGHBORING CELL REQUIRED FOR INTERPOLATION IS DRY OR INACTIVE (OBS2BAS7SE)
 
 SOLVING FOR HEAD 
                                                   Max.-Head-Change                        Max.-Flux-Residual
  Residual-Control   Outer-Iter.   Inner-Iter.     Column Row Layer    Max.-Head-Change    Column Row Layer    Max.-Flux-Residual            L2-New               L2-Old           Solver-Max-Delh
          0                 1          11            51  103     3       0.4825267992E+01      51  103    3       0.1026615814E+06      0.6336013487E+06      0.1530476142E+02      0.4825267992E+01
          0                 2          10            73   14     1      -0.1970734428E+01      73   14    1      -0.6736477952E+05      0.1004379106E+06      0.6336013487E+06     -0.1970734428E+01
          0                 3           6            27   35     1       0.1296654368E-01      27   35    1       0.3944417242E+03      0.4241377716E+03      0.1004379106E+06      0.1296654368E-01
          0                 4           2            72   14     1       0.2687384516E-03      72   14    1       0.1886623584E+01      0.2925492204E+01      0.4241377716E+03      0.2687384516E-03

    ------------------------------------------------
       NWT REQUIRED            4 OUTER ITERATIONS 
       AND A TOTAL OF         29 INNER ITERATIONS.
    ------------------------------------------------

 NO OUTPUT CONTROL FOR STRESS PERIOD   22   TIME STEP    3
 
 SOLVING FOR HEAD 
                                                   Max.-Head-Change                        Max.-Flux-Residual
  Residual-Control   Outer-Iter.   Inner-Iter.     Column Row Layer    Max.-Head-Change    Column Row Layer    Max.-Flux-Residual            L2-New               L2-Old           Solver-Max-Delh
          0                 1          11            51  103     3       0.4723724697E+01      51  103    3       0.1005794746E+06      0.6029538341E+06      0.2925492204E+01      0.4723724697E+01
          0                 2          10            66   25     1      -0.4939223153E+00      66   25    1      -0.2262534833E+05      0.6491476066E+05      0.6029538341E+06     -0.4939223153E+00
          0                 3           7            21   23     2       0.8928697703E-02      21   23    2       0.6518847120E+03      0.6528063625E+03      0.6491476066E+05      0.8928697703E-02

    ------------------------------------------------
       NWT REQUIRED            3 OUTER ITERATIONS 
       AND A TOTAL OF         28 INNER ITERATIONS.
    ------------------------------------------------

 NO OUTPUT CONTROL FOR STRESS PERIOD   22   TIME STEP    4
 
 SOLVING FOR HEAD 
                                                   Max.-Head-Change                        Max.-Flux-Residual
  Residual-Control   Outer-Iter.   Inner-Iter.     Column Row Layer    Max.-Head-Change    Column Row Layer    Max.-Flux-Residual            L2-New               L2-Old           Solver-Max-Delh
          0                 1          11            51  103     3       0.4621182753E+01      51  103    3       0.9846854881E+05      0.5835240564E+06      0.6528063625E+03      0.4621182753E+01
          0                 2          10            72   15     2       0.3646464107E+01      72   15    2       0.3212596242E+05      0.7107397836E+05      0.5835240564E+06      0.3646464107E+01
          0                 3           7            72   15     2      -0.3311829646E+00      59   98    1      -0.9304865250E+04      0.1169907338E+05      0.7107397836E+05     -0.3311829646E+00
          0                 4           5            59   98     1      -0.1572271427E-01      59   98    1      -0.8393162212E+03      0.1010006291E+04      0.1169907338E+05     -0.1572271427E-01
          0                 5           4            59   98     1      -0.1413995146E-02      59   98    1      -0.7546989097E+02      0.9081505035E+02      0.1010006291E+04     -0.1413995146E-02

    ------------------------------------------------
       NWT REQUIRED            5 OUTER ITERATIONS 
       AND A TOTAL OF         37 INNER ITERATIONS.
    ------------------------------------------------

 NO OUTPUT CONTROL FOR STRESS PERIOD   22   TIME STEP    5
 
 SOLVING FOR HEAD 
                                                   Max.-Head-Change                        Max.-Flux-Residual
  Residual-Control   Outer-Iter.   Inner-Iter.     Column Row Layer    Max.-Head-Change    Column Row Layer    Max.-Flux-Residual            L2-New               L2-Old           Solver-Max-Delh
          0                 1          11            51  103     3       0.4517998926E+01      51  103    3       0.9633648692E+05      0.5714834146E+06      0.9081505035E+02      0.4517998926E+01
          0                 2          10            51  103     3      -0.4124318818E+00      12    8    1      -0.1343478994E+05      0.5933861044E+05      0.5714834146E+06     -0.4124318818E+00
          0                 3           6            68  101     1       0.2488538183E-01      12    8    1       0.1324607630E+04      0.1586196712E+04      0.5933861044E+05      0.2488538183E-01
          0                 4           4            23    8     1       0.1269318927E-02      23    8    1       0.2498880678E+02      0.3492459510E+02      0.1586196712E+04      0.1269318927E-02

    ------------------------------------------------
       NWT REQUIRED            4 OUTER ITERATIONS 
       AND A TOTAL OF         31 INNER ITERATIONS.
    ------------------------------------------------

 NO OUTPUT CONTROL FOR STRESS PERIOD   22   TIME STEP    6
 
 SOLVING FOR HEAD 
                                                   Max.-Head-Change                        Max.-Flux-Residual
  Residual-Control   Outer-Iter.   Inner-Iter.     Column Row Layer    Max.-Head-Change    Column Row Layer    Max.-Flux-Residual            L2-New               L2-Old           Solver-Max-Delh
          0                 1          11            51  103     3       0.4414515857E+01      51  103    3       0.9419073154E+05      0.5637026230E+06      0.3492459510E+02      0.4414515857E+01
          0                 2          10            70   19     2       0.1482663274E+01      70   17    1      -0.2339123294E+05      0.6504113925E+05      0.5637026230E+06      0.1482663274E+01
          0                 3           7            70   19     2      -0.1344185278E+00      25   37    1      -0.3768264356E+04      0.4419943465E+04      0.6504113925E+05     -0.1344185278E+00
          0                 4           6            25   37     1      -0.5963411665E-02      25   37    1      -0.3394288777E+03      0.3394647190E+03      0.4419943465E+04     -0.5963411665E-02

    ------------------------------------------------
       NWT REQUIRED            4 OUTER ITERATIONS 
       AND A TOTAL OF         34 INNER ITERATIONS.
    ------------------------------------------------

 NO OUTPUT CONTROL FOR STRESS PERIOD   22   TIME STEP    7
 
 SOLVING FOR HEAD 
                                                   Max.-Head-Change                        Max.-Flux-Residual
  Residual-Control   Outer-Iter.   Inner-Iter.     Column Row Layer    Max.-Head-Change    Column Row Layer    Max.-Flux-Residual            L2-New               L2-Old           Solver-Max-Delh
          0                 1          11            70   19     2       0.4852098281E+01      51  103    3       0.9203842937E+05      0.5566610458E+06      0.3394647190E+03      0.4852098281E+01
          0                 2          10            70   19     2      -0.4402951509E+00      31   23    2       0.1184355310E+05      0.5957708178E+05      0.5566610458E+06     -0.4402951509E+00
          0                 3           6            25   37     1       0.3095919258E-01      25   37    1       0.8219399764E+03      0.1128135816E+04      0.5957708178E+05      0.3095919258E-01
          0                 4           3            75   93     1       0.2690894804E-03      25   37    1       0.8647377342E+00      0.1200505793E+01      0.1128135816E+04      0.2690894804E-03

    ------------------------------------------------
       NWT REQUIRED            4 OUTER ITERATIONS 
       AND A TOTAL OF         30 INNER ITERATIONS.
    ------------------------------------------------

 NO OUTPUT CONTROL FOR STRESS PERIOD   22   TIME STEP    8
 
 SOLVING FOR HEAD 
                                                   Max.-Head-Change                        Max.-Flux-Residual
  Residual-Control   Outer-Iter.   Inner-Iter.     Column Row Layer    Max.-Head-Change    Column Row Layer    Max.-Flux-Residual            L2-New               L2-Old           Solver-Max-Delh
          0                 1          11            51  103     3       0.4207936683E+01      51  103    3       0.8988635613E+05      0.5523435768E+06      0.1200505793E+01      0.4207936683E+01
          0                 2          10            66   25     2       0.4475560888E+00      66   25    2       0.1018624672E+05      0.5661961907E+05      0.5523435768E+06      0.4475560888E+00
          0                 3           6            66   25     2      -0.4068047959E-01      66   25    2      -0.9858273284E+03      0.1148582526E+04      0.5661961907E+05     -0.4068047959E-01
          0                 4           2            66    7     2      -0.6542041785E-04      66   26    1       0.3720152378E-01      0.1601520097E+00      0.1148582526E+04     -0.6542041785E-04

    ------------------------------------------------
       NWT REQUIRED            4 OUTER ITERATIONS 
       AND A TOTAL OF         29 INNER ITERATIONS.
    ------------------------------------------------

 NO OUTPUT CONTROL FOR STRESS PERIOD   22   TIME STEP    9
 
 SOLVING FOR HEAD 
                                                   Max.-Head-Change                        Max.-Flux-Residual
  Residual-Control   Outer-Iter.   Inner-Iter.     Column Row Layer    Max.-Head-Change    Column Row Layer    Max.-Flux-Residual            L2-New               L2-Old           Solver-Max-Delh
          0                 1          11            51  103     3       0.4105434287E+01      51  103    3       0.8774092790E+05      0.5469998275E+06      0.1601520097E+00      0.4105434287E+01
          0                 2          10            73   14     2      -0.3870372402E+00      51  103    3      -0.8812545167E+04      0.5608212109E+05      0.5469998275E+06     -0.3870372402E+00
          0                 3           6            73   14     2       0.2181888255E+00      73   14    2       0.8631184302E+04      0.8690435500E+04      0.5608212109E+05      0.2181888255E+00
          0                 4           4            73   14     2       0.1962561247E-01      73   14    2       0.7763310404E+03      0.7763562568E+03      0.8690435500E+04      0.1962561247E-01
          0                 5           3            73   14     2       0.1764471675E-02      73   14    2       0.6978834501E+02      0.6979050173E+02      0.7763562568E+03      0.1764471675E-02

    ------------------------------------------------
       NWT REQUIRED            5 OUTER ITERATIONS 
       AND A TOTAL OF         34 INNER ITERATIONS.
    ------------------------------------------------

 NO OUTPUT CONTROL FOR STRESS PERIOD   22   TIME STEP   10
 
 SOLVING FOR HEAD 
                                                   Max.-Head-Change                        Max.-Flux-Residual
  Residual-Control   Outer-Iter.   Inner-Iter.     Column Row Layer    Max.-Head-Change    Column Row Layer    Max.-Flux-Residual            L2-New               L2-Old           Solver-Max-Delh
          0                 1          11            51  103     3       0.4003817648E+01      51  103    3       0.8560812504E+05      0.5429435773E+06      0.6979050173E+02      0.4003817648E+01
          0                 2          10            73   14     2       0.3437335825E+01      73   14    2       0.3459986279E+05      0.6582391521E+05      0.5429435773E+06      0.3437335825E+01
          0                 3           6            73   14     2      -0.3123663611E+00      73   14    2      -0.3449186929E+04      0.3506415334E+04      0.6582391521E+05     -0.3123663611E+00
          0                 4           3            81   61     1       0.1854621332E-02      81   61    1       0.1635598664E+01      0.1787827796E+01      0.3506415334E+04      0.1854621332E-02

    ------------------------------------------------
       NWT REQUIRED            4 OUTER ITERATIONS 
       AND A TOTAL OF         30 INNER ITERATIONS.
    ------------------------------------------------

 NO OUTPUT CONTROL FOR STRESS PERIOD   22   TIME STEP   11
 
 SOLVING FOR HEAD 
                                                   Max.-Head-Change                        Max.-Flux-Residual
  Residual-Control   Outer-Iter.   Inner-Iter.     Column Row Layer    Max.-Head-Change    Column Row Layer    Max.-Flux-Residual            L2-New               L2-Old           Solver-Max-Delh
          0                 1          11            51  103     3       0.3903329559E+01      51  103    3       0.8349348143E+05      0.5402866005E+06      0.1787827796E+01      0.3903329559E+01
          0                 2          10            51  103     3      -0.3559989460E+00      20   23    2       0.1262299972E+05      0.5779658837E+05      0.5402866005E+06     -0.3559989460E+00
          0                 3           6            14    2     1       0.2471520751E-01      14    2    1       0.6004141241E+03      0.8721501480E+03      0.5779658837E+05      0.2471520751E-01
          0                 4           2            81   61     1       0.6627512722E-04      14    2    1       0.7012144178E+00      0.8241354373E+00      0.8721501480E+03      0.6627512722E-04

    ------------------------------------------------
       NWT REQUIRED            4 OUTER ITERATIONS 
       AND A TOTAL OF         29 INNER ITERATIONS.
    ------------------------------------------------

 OUTPUT CONTROL FOR STRESS PERIOD   22   TIME STEP   12
    SAVE BUDGET
 UBDSV1 SAVING "         STORAGE" ON UNIT  39 AT TIME STEP 12, STRESS PERIOD  22
 UBDSV2 SAVING "   CONSTANT HEAD" ON UNIT  39 AT TIME STEP 12, STRESS PERIOD  22
 UBDSV1 SAVING "FLOW RIGHT FACE " ON UNIT  39 AT TIME STEP 12, STRESS PERIOD  22
 UBDSV1 SAVING "FLOW FRONT FACE " ON UNIT  39 AT TIME STEP 12, STRESS PERIOD  22
 UBDSV1 SAVING "FLOW LOWER FACE " ON UNIT  39 AT TIME STEP 12, STRESS PERIOD  22
 UBDSV4 SAVING "           WELLS" ON UNIT  39 AT TIME STEP 12, STRESS PERIOD  22
 UBDSV3 SAVING "              ET" ON UNIT  39 AT TIME STEP 12, STRESS PERIOD  22
 UBDSV3 SAVING "        RECHARGE" ON UNIT  39 AT TIME STEP 12, STRESS PERIOD  22
1
  VOLUMETRIC BUDGET FOR ENTIRE MODEL AT END OF TIME STEP   12, STRESS PERIOD  22
  ------------------------------------------------------------------------------

     CUMULATIVE VOLUMES      L**3       RATES FOR THIS TIME STEP      L**3/T
     ------------------                 ------------------------

           IN:                                      IN:
           ---                                      ---
             STORAGE     =114792464384.0000               STORAGE     =    23396142.0000
       CONSTANT HEAD     = 10425622528.0000         CONSTANT HEAD     =     1430404.8750
               WELLS     =  9849243648.0000                 WELLS     =     1225642.0000
                  ET     =           0.0000                    ET     =           0.0000
            RECHARGE     =116823023616.0000              RECHARGE     =    21158826.0000

                TOTAL IN =251890352128.0000                  TOTAL IN =    47211016.0000

          OUT:                                     OUT:
          ----                                     ----
             STORAGE     = 12955528192.0000               STORAGE     =     4124497.0000
       CONSTANT HEAD     = 29103765504.0000         CONSTANT HEAD     =     3687024.2500
               WELLS     =201632071680.0000                 WELLS     =    38677168.0000
                  ET     =  8198940160.0000                    ET     =      722329.1875
            RECHARGE     =           0.0000              RECHARGE     =           0.0000

               TOTAL OUT =251890302976.0000                 TOTAL OUT =    47211016.0000

                IN - OUT =       49152.0000                  IN - OUT =           0.0000

     PERCENT DISCREPANCY =           0.00         PERCENT DISCREPANCY =           0.00






         TIME SUMMARY AT END OF TIME STEP   12 IN STRESS PERIOD   22
                    SECONDS     MINUTES      HOURS       DAYS        YEARS
                    -----------------------------------------------------------
   TIME STEP LENGTH 2.62800E+06  43800.      730.00      30.417     8.32763E-02
 STRESS PERIOD TIME 3.15360E+07 5.25600E+05  8760.0      365.00     0.99932    
         TOTAL TIME 6.94309E+08 1.15718E+07 1.92864E+05  8036.0      22.001    
1
1
                            STRESS PERIOD NO.   23, LENGTH =   365.0000    
                            -----------------------------------------------

                              NUMBER OF TIME STEPS =    12

                               MULTIPLIER FOR DELT =     1.000

                            INITIAL TIME STEP SIZE =   30.41667    

   1884 WELLS

 REUSING SURF FROM LAST STRESS PERIOD

 REUSING EVTR FROM LAST STRESS PERIOD

 REUSING EXDP FROM LAST STRESS PERIOD



                           RECHARGE
 READING ON UNIT   16 WITH FORMAT: (15F5.0)            


     63 TIME-VARIANT SPECIFIED-HEAD CELLS
 
 SOLVING FOR HEAD 
                                                   Max.-Head-Change                        Max.-Flux-Residual
  Residual-Control   Outer-Iter.   Inner-Iter.     Column Row Layer    Max.-Head-Change    Column Row Layer    Max.-Flux-Residual            L2-New               L2-Old           Solver-Max-Delh
          0                 1          11            92   77     2      -0.4505934449E+02      59   85    3      -0.4311739340E+06      0.1021827907E+07      0.8241354373E+00     -0.4505934449E+02
          0                 2          10            65    2     2      -0.7118245499E+02      59   85    3       0.1558740901E+06      0.1854567612E+06      0.1021827907E+07     -0.7118245499E+02
          0                 3           6            65    2     2       0.2209244685E+01      65    2    3      -0.2825849388E+04      0.3763140409E+04      0.1854567612E+06      0.2209244685E+01
          0                 4           3            65    2     2       0.1530659189E+00      65    2    2       0.6806432193E+02      0.7427221969E+02      0.3763140409E+04      0.1530659189E+00
          0                 5           2            65    2     2       0.8804861447E-02      65    2    3       0.6084869057E+01      0.7826381889E+01      0.7427221969E+02      0.8804861447E-02

    ------------------------------------------------
       NWT REQUIRED            5 OUTER ITERATIONS 
       AND A TOTAL OF         32 INNER ITERATIONS.
    ------------------------------------------------

 NO OUTPUT CONTROL FOR STRESS PERIOD   23   TIME STEP    1
 
 SOLVING FOR HEAD 
                                                   Max.-Head-Change                        Max.-Flux-Residual
  Residual-Control   Outer-Iter.   Inner-Iter.     Column Row Layer    Max.-Head-Change    Column Row Layer    Max.-Flux-Residual            L2-New               L2-Old           Solver-Max-Delh
          0                 1          11            66    1     2      -0.4872635252E+02      59   85    2      -0.1200152374E+06      0.7161164718E+06      0.7826381889E+01     -0.4872635252E+02
          0                 2          10            58   99     2      -0.1949754175E+01      34   24    2       0.1294946903E+05      0.7393995677E+05      0.7161164718E+06     -0.1949754175E+01
          0                 3           6            58   99     2       0.2598344031E+00      58   99    2       0.2291090540E+04      0.2723051438E+04      0.7393995677E+05      0.2598344031E+00
          0                 4           3            65    2     2       0.5590948842E-02      59   99    2      -0.5720138459E+02      0.5992320400E+02      0.2723051438E+04      0.5590948842E-02

    ------------------------------------------------
       NWT REQUIRED            4 OUTER ITERATIONS 
       AND A TOTAL OF         30 INNER ITERATIONS.
    ------------------------------------------------

 NO OUTPUT CONTROL FOR STRESS PERIOD   23   TIME STEP    2
 
 SOLVING FOR HEAD 
                                                   Max.-Head-Change                        Max.-Flux-Residual
  Residual-Control   Outer-Iter.   Inner-Iter.     Column Row Layer    Max.-Head-Change    Column Row Layer    Max.-Flux-Residual            L2-New               L2-Old           Solver-Max-Delh
          0                 1          11            59   85     2      -0.4019127470E+01      70   19    1      -0.1055258990E+06      0.6528795949E+06      0.5992320400E+02     -0.4019127470E+01
          0                 2          10            65    6     2      -0.3201045368E+01      69   21    1      -0.1318984315E+05      0.6751967003E+05      0.6528795949E+06     -0.3201045368E+01
          0                 3           6            69   21     1       0.2273806200E+00      69   21    1       0.1238244671E+04      0.1583583852E+04      0.6751967003E+05      0.2273806200E+00
          0                 4           2            65    6     2       0.6601465416E-02      69   21    1       0.6878695514E+01      0.8104230528E+01      0.1583583852E+04      0.6601465416E-02

    ------------------------------------------------
       NWT REQUIRED            4 OUTER ITERATIONS 
       AND A TOTAL OF         29 INNER ITERATIONS.
    ------------------------------------------------

 NO OUTPUT CONTROL FOR STRESS PERIOD   23   TIME STEP    3
 
 SOLVING FOR HEAD 
                                                   Max.-Head-Change                        Max.-Flux-Residual
  Residual-Control   Outer-Iter.   Inner-Iter.     Column Row Layer    Max.-Head-Change    Column Row Layer    Max.-Flux-Residual            L2-New               L2-Old           Solver-Max-Delh
          0                 1          11            65    6     2      -0.4213049321E+02      70   19    1      -0.9451596279E+05      0.6174530614E+06      0.8104230528E+01     -0.4213049321E+02
          0                 2          10            65    3     2      -0.5564528147E+01      59   94    3       0.2176072112E+05      0.6722665951E+05      0.6174530614E+06     -0.5564528147E+01
          0                 3           6            65    3     2       0.1826489921E+00      13    9    1       0.9577248799E+03      0.1105497632E+04      0.6722665951E+05      0.1826489921E+00
          0                 4           2            65    3     2       0.1057986360E-01      65    3    2       0.4676212121E+01      0.6593744361E+01      0.1105497632E+04      0.1057986360E-01
          0                 5           2            65    3     2       0.6118800883E-03      65    3    2       0.2704221548E+00      0.4218401478E+00      0.6593744361E+01      0.6118800883E-03

    ------------------------------------------------
       NWT REQUIRED            5 OUTER ITERATIONS 
       AND A TOTAL OF         31 INNER ITERATIONS.
    ------------------------------------------------

 NO OUTPUT CONTROL FOR STRESS PERIOD   23   TIME STEP    4
 
 SOLVING FOR HEAD 
                                                   Max.-Head-Change                        Max.-Flux-Residual
  Residual-Control   Outer-Iter.   Inner-Iter.     Column Row Layer    Max.-Head-Change    Column Row Layer    Max.-Flux-Residual            L2-New               L2-Old           Solver-Max-Delh
          0                 1          11            65    3     2      -0.3626077346E+02      70   19    1      -0.8502865283E+05      0.5951355782E+06      0.4218401478E+00     -0.3626077346E+02
          0                 2          10            65    3     2       0.4152807671E+01      58  103    2       0.1224311018E+05      0.6198910478E+05      0.5951355782E+06      0.4152807671E+01
          0                 3           6            65    3     2       0.2079879381E+00      34   24    1       0.9217937420E+03      0.1204112885E+04      0.6198910478E+05      0.2079879381E+00
          0                 4           3            65    3     2       0.1041322736E-01      65    3    2       0.5236601763E+01      0.5814552976E+01      0.1204112885E+04      0.1041322736E-01
          0                 5           1            65    3     2       0.5204809433E-03      65    3    2       0.2617023701E+00      0.3317289456E+00      0.5814552976E+01      0.5204809433E-03

    ------------------------------------------------
       NWT REQUIRED            5 OUTER ITERATIONS 
       AND A TOTAL OF         31 INNER ITERATIONS.
    ------------------------------------------------

 NO OUTPUT CONTROL FOR STRESS PERIOD   23   TIME STEP    5
 
 SOLVING FOR HEAD 
                                                   Max.-Head-Change                        Max.-Flux-Residual
  Residual-Control   Outer-Iter.   Inner-Iter.     Column Row Layer    Max.-Head-Change    Column Row Layer    Max.-Flux-Residual            L2-New               L2-Old           Solver-Max-Delh
          0                 1          11            51  103     3       0.3368020698E+01      70   19    1      -0.7680052855E+05      0.5774978073E+06      0.3317289456E+00      0.3368020698E+01
          0                 2          10            65    5     2      -0.2932618849E+02      65    5    2      -0.1407074184E+05      0.6186855203E+05      0.5774978073E+06     -0.2932618849E+02
          0                 3           6            65    5     2       0.2608262006E+01      65    5    2       0.1533094715E+04      0.2016859276E+04      0.6186855203E+05      0.2608262006E+01
          0                 4           3            65    5     2       0.1134476033E+00      60   87    1      -0.7193028423E+02      0.1223550679E+03      0.2016859276E+04      0.1134476033E+00
          0                 5           2            65    5     2       0.4904313673E-02      60   87    1      -0.6466657877E+01      0.9376042549E+01      0.1223550679E+03      0.4904313673E-02

    ------------------------------------------------
       NWT REQUIRED            5 OUTER ITERATIONS 
       AND A TOTAL OF         32 INNER ITERATIONS.
    ------------------------------------------------

 NO OUTPUT CONTROL FOR STRESS PERIOD   23   TIME STEP    6
 
 SOLVING FOR HEAD 
                                                   Max.-Head-Change                        Max.-Flux-Residual
  Residual-Control   Outer-Iter.   Inner-Iter.     Column Row Layer    Max.-Head-Change    Column Row Layer    Max.-Flux-Residual            L2-New               L2-Old           Solver-Max-Delh
          0                 1          11            65    5     2      -0.1420586107E+02      51  103    3       0.7025798233E+05      0.5641003354E+06      0.9376042549E+01     -0.1420586107E+02
          0                 2          10            66    4     2      -0.5213259348E+01      70   19    2       0.1349890482E+05      0.6165063338E+05      0.5641003354E+06     -0.5213259348E+01
          0                 3           6            66    4     2       0.1737312247E+00      66   25    1       0.1211717874E+04      0.1884218195E+04      0.6165063338E+05      0.1737312247E+00
          0                 4           2            66    4     2       0.1007616177E-01      66    4    2       0.4401439950E+01      0.6014918537E+01      0.1884218195E+04      0.1007616177E-01
          0                 5           1            66    4     2       0.5834186292E-03      66    4    2       0.2547751479E+00      0.2945616128E+00      0.6014918537E+01      0.5834186292E-03

    ------------------------------------------------
       NWT REQUIRED            5 OUTER ITERATIONS 
       AND A TOTAL OF         30 INNER ITERATIONS.
    ------------------------------------------------

 NO OUTPUT CONTROL FOR STRESS PERIOD   23   TIME STEP    7
 
 SOLVING FOR HEAD 
                                                   Max.-Head-Change                        Max.-Flux-Residual
  Residual-Control   Outer-Iter.   Inner-Iter.     Column Row Layer    Max.-Head-Change    Column Row Layer    Max.-Flux-Residual            L2-New               L2-Old           Solver-Max-Delh
          0                 1          11            66    4     2      -0.5722540793E+01      51  103    3       0.6840823708E+05      0.5540500030E+06      0.2945616128E+00     -0.5722540793E+01
          0                 2          10            18   33     2      -0.7419074551E+00      46   30    2       0.7746601045E+04      0.5708571644E+05      0.5540500030E+06     -0.7419074551E+00
          0                 3           8            18   33     2       0.1561440395E+00      18   33    2       0.1658548442E+04      0.2212987152E+04      0.5708571644E+05      0.1561440395E+00
          0                 4           5            19   33     2      -0.1759590369E-02      19   33    2      -0.6472109217E+02      0.8928841379E+02      0.2212987152E+04     -0.1759590369E-02

    ------------------------------------------------
       NWT REQUIRED            4 OUTER ITERATIONS 
       AND A TOTAL OF         34 INNER ITERATIONS.
    ------------------------------------------------

 NO OUTPUT CONTROL FOR STRESS PERIOD   23   TIME STEP    8
 
 SOLVING FOR HEAD 
                                                   Max.-Head-Change                        Max.-Flux-Residual
  Residual-Control   Outer-Iter.   Inner-Iter.     Column Row Layer    Max.-Head-Change    Column Row Layer    Max.-Flux-Residual            L2-New               L2-Old           Solver-Max-Delh
          0                 1          11            51  103     3       0.3108487142E+01      51  103    3       0.6660589916E+05      0.5454952871E+06      0.8928841379E+02      0.3108487142E+01
          0                 2          10            59   94     2      -0.2292703576E+01      59   94    2      -0.1830123310E+05      0.6026683445E+05      0.5454952871E+06     -0.2292703576E+01
          0                 3           6            59   94     2       0.1933349106E+00      59   94    2       0.1765273258E+04      0.2116519565E+04      0.6026683445E+05      0.1933349106E+00
          0                 4           4            13    2     1      -0.1586428240E-02      13    2    1      -0.8612189344E+02      0.8678445184E+02      0.2116519565E+04     -0.1586428240E-02

    ------------------------------------------------
       NWT REQUIRED            4 OUTER ITERATIONS 
       AND A TOTAL OF         31 INNER ITERATIONS.
    ------------------------------------------------

 NO OUTPUT CONTROL FOR STRESS PERIOD   23   TIME STEP    9
 
 SOLVING FOR HEAD 
                                                   Max.-Head-Change                        Max.-Flux-Residual
  Residual-Control   Outer-Iter.   Inner-Iter.     Column Row Layer    Max.-Head-Change    Column Row Layer    Max.-Flux-Residual            L2-New               L2-Old           Solver-Max-Delh
          0                 1          11            73   14     1      -0.4741633572E+01      51  103    3       0.6485212729E+05      0.5387200792E+06      0.8678445184E+02     -0.4741633572E+01
          0                 2          10            58   98     2      -0.1350277229E+01      22   50    3       0.8930426963E+04      0.5699618811E+05      0.5387200792E+06     -0.1350277229E+01
          0                 3           8            58   98     2       0.1170081026E+00      22   50    2      -0.4241249743E+04      0.4831160927E+04      0.5699618811E+05      0.1170081026E+00
          0                 4           6            22   50     2      -0.7676456550E-02      22   50    2      -0.3821925250E+03      0.4170312889E+03      0.4831160927E+04     -0.7676456550E-02

    ------------------------------------------------
       NWT REQUIRED            4 OUTER ITERATIONS 
       AND A TOTAL OF         35 INNER ITERATIONS.
    ------------------------------------------------

 NO OUTPUT CONTROL FOR STRESS PERIOD   23   TIME STEP   10
 
 SOLVING FOR HEAD 
                                                   Max.-Head-Change                        Max.-Flux-Residual
  Residual-Control   Outer-Iter.   Inner-Iter.     Column Row Layer    Max.-Head-Change    Column Row Layer    Max.-Flux-Residual            L2-New               L2-Old           Solver-Max-Delh
          0                 1          11            59   85     1      -0.5161872798E+01      51  103    3       0.6314768493E+05      0.5333839342E+06      0.4170312889E+03     -0.5161872798E+01
          0                 2          10            20   43     2      -0.1239186470E+01      60   85    1      -0.1840955089E+05      0.6410231124E+05      0.5333839342E+06     -0.1239186470E+01
          0                 3           7            60   86     1      -0.1583862971E+00      60   86    1      -0.9418452097E+04      0.1007697952E+05      0.6410231124E+05     -0.1583862971E+00
          0                 4           5            60   86     1      -0.1432482794E-01      60   86    1      -0.8508898993E+03      0.8783080196E+03      0.1007697952E+05     -0.1432482794E-01
          0                 5           4            60   86     1      -0.1288484920E-02      60   86    1      -0.7651845086E+02      0.7897035956E+02      0.8783080196E+03     -0.1288484920E-02

    ------------------------------------------------
       NWT REQUIRED            5 OUTER ITERATIONS 
       AND A TOTAL OF         37 INNER ITERATIONS.
    ------------------------------------------------

 NO OUTPUT CONTROL FOR STRESS PERIOD   23   TIME STEP   11
 
 SOLVING FOR HEAD 
                                                   Max.-Head-Change                        Max.-Flux-Residual
  Residual-Control   Outer-Iter.   Inner-Iter.     Column Row Layer    Max.-Head-Change    Column Row Layer    Max.-Flux-Residual            L2-New               L2-Old           Solver-Max-Delh
          0                 1          11            51  103     3       0.2870236124E+01      51  103    3       0.6149303002E+05      0.5292441507E+06      0.7897035956E+02      0.2870236124E+01
          0                 2          10            22   47     2      -0.7952382958E+00      58   87    3       0.1621143692E+05      0.6199085751E+05      0.5292441507E+06     -0.7952382958E+00
          0                 3           7            22   47     2       0.7014462495E-01      60   86    1       0.1332893371E+04      0.2402888493E+04      0.6199085751E+05      0.7014462495E-01
          0                 4           5            12   12     1      -0.9082673752E-03      12   12    1      -0.1050782230E+03      0.1053146603E+03      0.2402888493E+04     -0.9082673752E-03

    ------------------------------------------------
       NWT REQUIRED            4 OUTER ITERATIONS 
       AND A TOTAL OF         33 INNER ITERATIONS.
    ------------------------------------------------

 OUTPUT CONTROL FOR STRESS PERIOD   23   TIME STEP   12
    SAVE BUDGET
 UBDSV1 SAVING "         STORAGE" ON UNIT  39 AT TIME STEP 12, STRESS PERIOD  23
 UBDSV2 SAVING "   CONSTANT HEAD" ON UNIT  39 AT TIME STEP 12, STRESS PERIOD  23
 UBDSV1 SAVING "FLOW RIGHT FACE " ON UNIT  39 AT TIME STEP 12, STRESS PERIOD  23
 UBDSV1 SAVING "FLOW FRONT FACE " ON UNIT  39 AT TIME STEP 12, STRESS PERIOD  23
 UBDSV1 SAVING "FLOW LOWER FACE " ON UNIT  39 AT TIME STEP 12, STRESS PERIOD  23
 UBDSV4 SAVING "           WELLS" ON UNIT  39 AT TIME STEP 12, STRESS PERIOD  23
 UBDSV3 SAVING "              ET" ON UNIT  39 AT TIME STEP 12, STRESS PERIOD  23
 UBDSV3 SAVING "        RECHARGE" ON UNIT  39 AT TIME STEP 12, STRESS PERIOD  23
1
  VOLUMETRIC BUDGET FOR ENTIRE MODEL AT END OF TIME STEP   12, STRESS PERIOD  23
  ------------------------------------------------------------------------------

     CUMULATIVE VOLUMES      L**3       RATES FOR THIS TIME STEP      L**3/T
     ------------------                 ------------------------

           IN:                                      IN:
           ---                                      ---
             STORAGE     =125040066560.0000               STORAGE     =    27454900.0000
       CONSTANT HEAD     = 10935335936.0000         CONSTANT HEAD     =     1377890.6250
               WELLS     = 10296600576.0000                 WELLS     =     1225642.0000
                  ET     =           0.0000                    ET     =           0.0000
            RECHARGE     =122482089984.0000              RECHARGE     =    15504236.0000

                TOTAL IN =268754092032.0000                  TOTAL IN =    45562668.0000

          OUT:                                     OUT:
          ----                                     ----
             STORAGE     = 13487148032.0000               STORAGE     =      903588.5000
       CONSTANT HEAD     = 30426865664.0000         CONSTANT HEAD     =     3604693.7500
               WELLS     =216418418688.0000                 WELLS     =    40509004.0000
                  ET     =  8421577728.0000                    ET     =      545394.3125
            RECHARGE     =           0.0000              RECHARGE     =           0.0000

               TOTAL OUT =268754010112.0000                 TOTAL OUT =    45562684.0000

                IN - OUT =       81920.0000                  IN - OUT =         -16.0000

     PERCENT DISCREPANCY =           0.00         PERCENT DISCREPANCY =          -0.00






         TIME SUMMARY AT END OF TIME STEP   12 IN STRESS PERIOD   23
                    SECONDS     MINUTES      HOURS       DAYS        YEARS
                    -----------------------------------------------------------
   TIME STEP LENGTH 2.62800E+06  43800.      730.00      30.417     8.32763E-02
 STRESS PERIOD TIME 3.15360E+07 5.25600E+05  8760.0      365.00     0.99932    
         TOTAL TIME 7.25846E+08 1.20974E+07 2.01624E+05  8401.0      23.001    
1
1
                            STRESS PERIOD NO.   24, LENGTH =   365.0000    
                            -----------------------------------------------

                              NUMBER OF TIME STEPS =    12

                               MULTIPLIER FOR DELT =     1.000

                            INITIAL TIME STEP SIZE =   30.41667    

   1937 WELLS

 REUSING SURF FROM LAST STRESS PERIOD

 REUSING EVTR FROM LAST STRESS PERIOD

 REUSING EXDP FROM LAST STRESS PERIOD



                           RECHARGE
 READING ON UNIT   16 WITH FORMAT: (15F5.0)            


     63 TIME-VARIANT SPECIFIED-HEAD CELLS
 
 SOLVING FOR HEAD 
                                                   Max.-Head-Change                        Max.-Flux-Residual
  Residual-Control   Outer-Iter.   Inner-Iter.     Column Row Layer    Max.-Head-Change    Column Row Layer    Max.-Flux-Residual            L2-New               L2-Old           Solver-Max-Delh
          0                 1          11            92   77     2       0.8782069460E+02      58   66    2      -0.4600079214E+06      0.9188755876E+06      0.1053146603E+03      0.8782069460E+02
          0                 2          10            92   77     2       0.3241822121E+02      58   66    2       0.4600079281E+05      0.9844681059E+05      0.9188755876E+06      0.3241822121E+02
          1                 2           0            92   77     2       0.2917639831E+02      92   77    2      -0.6807147773E+06      0.6814976355E+06      0.9844681059E+05      0.3241822121E+02
          2                 2           0            92   77     2       0.2625875779E+02      92   77    2      -0.5830519555E+06      0.5837235998E+06      0.6814976355E+06      0.3241822121E+02
          3                 2           0            92   77     2       0.2363288138E+02      92   77    2      -0.4954491751E+06      0.4962236645E+06      0.5837235998E+06      0.3241822121E+02
          4                 2           0            92   77     2       0.2126959268E+02      92   77    2      -0.4168446180E+06      0.4179730323E+06      0.4962236645E+06      0.3241822121E+02
          5                 2           0            92   77     2       0.1914263291E+02      92   77    2      -0.3462932523E+06      0.3480891470E+06      0.4179730323E+06      0.3241822121E+02
          6                 2           0            92   77     2       0.1722836916E+02      92   77    2      -0.2829531395E+06      0.2858350043E+06      0.3480891470E+06      0.3241822121E+02
          7                 2           0            92   77     2       0.1550553183E+02      92   77    2      -0.2260734921E+06      0.2306396372E+06      0.2858350043E+06      0.3241822121E+02
          0                 3          10            92   77     2      -0.5907168645E+01      92   77    2      -0.1749842375E+06      0.1821558930E+06      0.2306396372E+06     -0.5907168645E+01
                                                   Max.-Head-Change                        Max.-Flux-Residual
  Residual-Control   Outer-Iter.   Inner-Iter.     Column Row Layer    Max.-Head-Change    Column Row Layer    Max.-Flux-Residual            L2-New               L2-Old           Solver-Max-Delh
          0                 4           6            91   77     2       0.5737273395E+00      31   19    1       0.9068237204E+03      0.1608291716E+04      0.1821558930E+06      0.5737273395E+00
          0                 5           4            91   77     2       0.8815485937E-01      91   77    2       0.3896592383E+02      0.6102868243E+02      0.1608291716E+04      0.8815485937E-01
          0                 6           3            91   77     2       0.1351078113E-01      91   77    2       0.5971343374E+01      0.7311131199E+01      0.6102868243E+02      0.1351078113E-01
          0                 7           2            91   77     2       0.2069578353E-02      91   77    2       0.9145827191E+00      0.9907231706E+00      0.7311131199E+01      0.2069578353E-02

    ------------------------------------------------
       NWT REQUIRED            7 OUTER ITERATIONS 
       AND A TOTAL OF         46 INNER ITERATIONS.
    ------------------------------------------------

 NO OUTPUT CONTROL FOR STRESS PERIOD   24   TIME STEP    1
 
 SOLVING FOR HEAD 
                                                   Max.-Head-Change                        Max.-Flux-Residual
  Residual-Control   Outer-Iter.   Inner-Iter.     Column Row Layer    Max.-Head-Change    Column Row Layer    Max.-Flux-Residual            L2-New               L2-Old           Solver-Max-Delh
          0                 1          11            58   66     1      -0.4916233364E+01      58   66    1      -0.2317112437E+06      0.6245819679E+06      0.9907231706E+00     -0.4916233364E+01
          0                 2          10            58   87     2      -0.7403440717E+00      58   66    1       0.2133522791E+05      0.6781667858E+05      0.6245819679E+06     -0.7403440717E+00
          0                 3           6            58   87     2       0.6529553205E-01      22   23    1       0.1407784092E+04      0.2682584229E+04      0.6781667858E+05      0.6529553205E-01
          0                 4           4            31   22     1      -0.9703748753E-03      31   22    1      -0.7665156138E+02      0.7976030891E+02      0.2682584229E+04     -0.9703748753E-03

    ------------------------------------------------
       NWT REQUIRED            4 OUTER ITERATIONS 
       AND A TOTAL OF         31 INNER ITERATIONS.
    ------------------------------------------------

 NO OUTPUT CONTROL FOR STRESS PERIOD   24   TIME STEP    2
 
 SOLVING FOR HEAD 
                                                   Max.-Head-Change                        Max.-Flux-Residual
  Residual-Control   Outer-Iter.   Inner-Iter.     Column Row Layer    Max.-Head-Change    Column Row Layer    Max.-Flux-Residual            L2-New               L2-Old           Solver-Max-Delh
          0                 1          11            58   66     1      -0.3311637827E+01      58   66    1      -0.1442556151E+06      0.5481433147E+06      0.7976030891E+02     -0.3311637827E+01
          0                 2          10            31   22     1      -0.3996028930E+00      58   66    1       0.1360909614E+05      0.6109496542E+05      0.5481433147E+06     -0.3996028930E+00
          0                 3           7            26   39     1      -0.6590350985E-01      19   19    1      -0.5019076479E+04      0.6499955865E+04      0.6109496542E+05     -0.6590350985E-01
          0                 4           6            26   39     1      -0.5939623112E-02      19   19    1      -0.4526858173E+03      0.5634028216E+03      0.6499955865E+04     -0.5939623112E-02

    ------------------------------------------------
       NWT REQUIRED            4 OUTER ITERATIONS 
       AND A TOTAL OF         34 INNER ITERATIONS.
    ------------------------------------------------

 NO OUTPUT CONTROL FOR STRESS PERIOD   24   TIME STEP    3
 
 SOLVING FOR HEAD 
                                                   Max.-Head-Change                        Max.-Flux-Residual
  Residual-Control   Outer-Iter.   Inner-Iter.     Column Row Layer    Max.-Head-Change    Column Row Layer    Max.-Flux-Residual            L2-New               L2-Old           Solver-Max-Delh
          0                 1          11            58   66     1      -0.2394045165E+01      58   66    1      -0.9697628016E+05      0.5143937958E+06      0.5634028216E+03     -0.2394045165E+01
          0                 2          10            26   39     1      -0.3703596150E+00      26   31    2       0.1112686143E+05      0.5468216769E+05      0.5143937958E+06     -0.3703596150E+00
          0                 3           6            26   39     1       0.3320471201E-01      19   19    1       0.9063286276E+03      0.1593800138E+04      0.5468216769E+05      0.3320471201E-01
          0                 4           3            91   77     2      -0.1386061270E-03      20   71    2      -0.4501210131E+01      0.4726329403E+01      0.1593800138E+04     -0.1386061270E-03

    ------------------------------------------------
       NWT REQUIRED            4 OUTER ITERATIONS 
       AND A TOTAL OF         30 INNER ITERATIONS.
    ------------------------------------------------

 NO OUTPUT CONTROL FOR STRESS PERIOD   24   TIME STEP    4
 
 SOLVING FOR HEAD 
                                                   Max.-Head-Change                        Max.-Flux-Residual
  Residual-Control   Outer-Iter.   Inner-Iter.     Column Row Layer    Max.-Head-Change    Column Row Layer    Max.-Flux-Residual            L2-New               L2-Old           Solver-Max-Delh
          0                 1          11            51  103     3       0.2161348893E+01      58   66    1      -0.7007666381E+05      0.4963802365E+06      0.4726329403E+01      0.2161348893E+01
          0                 2          10            26   31     1      -0.4831473199E+00      60   84    2       0.1762169561E+05      0.5684767323E+05      0.4963802365E+06     -0.4831473199E+00
          0                 3           6            26   31     1       0.4287883077E-01      26   31    1       0.8768122087E+03      0.1006434162E+04      0.5684767323E+05      0.4287883077E-01
          0                 4           3            26   31     1       0.2694215133E-03      26   31    1       0.4857750252E+01      0.6096897897E+01      0.1006434162E+04      0.2694215133E-03

    ------------------------------------------------
       NWT REQUIRED            4 OUTER ITERATIONS 
       AND A TOTAL OF         30 INNER ITERATIONS.
    ------------------------------------------------

 NO OUTPUT CONTROL FOR STRESS PERIOD   24   TIME STEP    5
 
 SOLVING FOR HEAD 
                                                   Max.-Head-Change                        Max.-Flux-Residual
  Residual-Control   Outer-Iter.   Inner-Iter.     Column Row Layer    Max.-Head-Change    Column Row Layer    Max.-Flux-Residual            L2-New               L2-Old           Solver-Max-Delh
          0                 1          11            51  103     3       0.2111065115E+01      58   66    1      -0.5389651438E+05      0.4850308229E+06      0.6096897897E+01      0.2111065115E+01
          0                 2          10            18   38     2      -0.3196642575E+01      18   38    2      -0.1643939258E+05      0.5542896328E+05      0.4850308229E+06     -0.3196642575E+01
          0                 3           7            18   38     2       0.2764401528E+00      18   38    2       0.1653174699E+04      0.2434060684E+04      0.5542896328E+05      0.2764401528E+00
          0                 4           5            18   38     2       0.3580754946E-02      18   38    2       0.1992059294E+02      0.2507783368E+02      0.2434060684E+04      0.3580754946E-02

    ------------------------------------------------
       NWT REQUIRED            4 OUTER ITERATIONS 
       AND A TOTAL OF         33 INNER ITERATIONS.
    ------------------------------------------------

 NO OUTPUT CONTROL FOR STRESS PERIOD   24   TIME STEP    6
 
 SOLVING FOR HEAD 
                                                   Max.-Head-Change                        Max.-Flux-Residual
  Residual-Control   Outer-Iter.   Inner-Iter.     Column Row Layer    Max.-Head-Change    Column Row Layer    Max.-Flux-Residual            L2-New               L2-Old           Solver-Max-Delh
          0                 1          11            51  103     3       0.2062527956E+01      51  103    3       0.4405715525E+05      0.4774213774E+06      0.2507783368E+02      0.2062527956E+01
          0                 2          10            26   15     1      -0.2026626396E+00      26   15    1      -0.4655150019E+04      0.4806128706E+05      0.4774213774E+06     -0.2026626396E+00
          0                 3           6            26   15     1       0.1818083729E-01      26   15    1       0.4575434878E+03      0.6957285831E+03      0.4806128706E+05      0.1818083729E-01
          0                 4           3            77   46     2       0.8708596133E-03      77   46    2       0.3955363630E+02      0.3957500466E+02      0.6957285831E+03      0.8708596133E-03

    ------------------------------------------------
       NWT REQUIRED            4 OUTER ITERATIONS 
       AND A TOTAL OF         30 INNER ITERATIONS.
    ------------------------------------------------

 NO OUTPUT CONTROL FOR STRESS PERIOD   24   TIME STEP    7
 
 SOLVING FOR HEAD 
                                                   Max.-Head-Change                        Max.-Flux-Residual
  Residual-Control   Outer-Iter.   Inner-Iter.     Column Row Layer    Max.-Head-Change    Column Row Layer    Max.-Flux-Residual            L2-New               L2-Old           Solver-Max-Delh
          0                 1          11            33   33     1      -0.2128551865E+01      51  103    3       0.4304525239E+05      0.4723495089E+06      0.3957500466E+02     -0.2128551865E+01
          0                 2          10            88   67     1      -0.6572877486E+00      88   67    1      -0.2671541395E+05      0.5529042345E+05      0.4723495089E+06     -0.6572877486E+00
          0                 3           6            22   48     2       0.4070756931E-01      22   48    2       0.3937571397E+03      0.4944939320E+03      0.5529042345E+05      0.4070756931E-01
          0                 4           3            87   67     1      -0.1355188671E-03      22   48    2       0.6703466289E+00      0.1093449042E+01      0.4944939320E+03     -0.1355188671E-03

    ------------------------------------------------
       NWT REQUIRED            4 OUTER ITERATIONS 
       AND A TOTAL OF         30 INNER ITERATIONS.
    ------------------------------------------------

 NO OUTPUT CONTROL FOR STRESS PERIOD   24   TIME STEP    8
 
 SOLVING FOR HEAD 
                                                   Max.-Head-Change                        Max.-Flux-Residual
  Residual-Control   Outer-Iter.   Inner-Iter.     Column Row Layer    Max.-Head-Change    Column Row Layer    Max.-Flux-Residual            L2-New               L2-Old           Solver-Max-Delh
          0                 1          11            51  103     3       0.1970438036E+01      51  103    3       0.4206839397E+05      0.4681249327E+06      0.1093449042E+01      0.1970438036E+01
          0                 2          10            51  103     3      -0.1792590557E+00      30   21    2       0.1325686443E+05      0.5065228257E+05      0.4681249327E+06     -0.1792590557E+00
          0                 3           7            30   21     1      -0.5336991123E-01      30   21    1      -0.4265746151E+04      0.4298748457E+04      0.5065228257E+05     -0.5336991123E-01
          0                 4           6            30   21     1      -0.4808549560E-02      30   21    1      -0.3842284411E+03      0.3844915204E+03      0.4298748457E+04     -0.4808549560E-02

    ------------------------------------------------
       NWT REQUIRED            4 OUTER ITERATIONS 
       AND A TOTAL OF         34 INNER ITERATIONS.
    ------------------------------------------------

 NO OUTPUT CONTROL FOR STRESS PERIOD   24   TIME STEP    9
 
 SOLVING FOR HEAD 
                                                   Max.-Head-Change                        Max.-Flux-Residual
  Residual-Control   Outer-Iter.   Inner-Iter.     Column Row Layer    Max.-Head-Change    Column Row Layer    Max.-Flux-Residual            L2-New               L2-Old           Solver-Max-Delh
          0                 1          11            51  103     3       0.1926758123E+01      51  103    3       0.4112524902E+05      0.4640141504E+06      0.3844915204E+03      0.1926758123E+01
          0                 2          10            58   86     2      -0.1566737377E+01      58   86    2      -0.1147477786E+05      0.5178279199E+05      0.4640141504E+06     -0.1566737377E+01
          0                 3           6            58   86     2       0.1305377396E+00      58   86    2       0.1103486062E+04      0.2292618857E+04      0.5178279199E+05      0.1305377396E+00
          0                 4           3            58   86     1       0.1083852416E-02      58   86    1       0.3961048156E+01      0.6832816855E+01      0.2292618857E+04      0.1083852416E-02

    ------------------------------------------------
       NWT REQUIRED            4 OUTER ITERATIONS 
       AND A TOTAL OF         30 INNER ITERATIONS.
    ------------------------------------------------

 NO OUTPUT CONTROL FOR STRESS PERIOD   24   TIME STEP   10
 
 SOLVING FOR HEAD 
                                                   Max.-Head-Change                        Max.-Flux-Residual
  Residual-Control   Outer-Iter.   Inner-Iter.     Column Row Layer    Max.-Head-Change    Column Row Layer    Max.-Flux-Residual            L2-New               L2-Old           Solver-Max-Delh
          0                 1          11            51  103     3       0.1884570767E+01      51  103    3       0.4021448928E+05      0.4615837679E+06      0.6832816855E+01      0.1884570767E+01
          0                 2          10            27   32     1      -0.5391793190E+00      27   32    1      -0.8883274984E+04      0.4933840614E+05      0.4615837679E+06     -0.5391793190E+00
          0                 3           7            27   32     1       0.5503300569E-01      26   36    1      -0.2726420159E+04      0.2972982450E+04      0.4933840614E+05      0.5503300569E-01
          0                 4           5            26   36     1      -0.4311692273E-02      26   36    1      -0.2456031450E+03      0.2458707699E+03      0.2972982450E+04     -0.4311692273E-02

    ------------------------------------------------
       NWT REQUIRED            4 OUTER ITERATIONS 
       AND A TOTAL OF         33 INNER ITERATIONS.
    ------------------------------------------------

 NO OUTPUT CONTROL FOR STRESS PERIOD   24   TIME STEP   11
 
 SOLVING FOR HEAD 
                                                   Max.-Head-Change                        Max.-Flux-Residual
  Residual-Control   Outer-Iter.   Inner-Iter.     Column Row Layer    Max.-Head-Change    Column Row Layer    Max.-Flux-Residual            L2-New               L2-Old           Solver-Max-Delh
          0                 1          11            51  103     3       0.1843814886E+01      51  103    3       0.3933481987E+05      0.4593136029E+06      0.2458707699E+03      0.1843814886E+01
          0                 2          10            72   15     1      -0.2465513943E+01      72   15    1      -0.1347975341E+05      0.5393082340E+05      0.4593136029E+06     -0.2465513943E+01
          0                 3           7            72   15     1       0.2125165352E+00      26   30    1      -0.2396194432E+04      0.2958413503E+04      0.5393082340E+05      0.2125165352E+00
          0                 4           5            26   30     1      -0.4182034866E-02      26   30    1      -0.2158800572E+03      0.2160075284E+03      0.2958413503E+04     -0.4182034866E-02

    ------------------------------------------------
       NWT REQUIRED            4 OUTER ITERATIONS 
       AND A TOTAL OF         33 INNER ITERATIONS.
    ------------------------------------------------

 OUTPUT CONTROL FOR STRESS PERIOD   24   TIME STEP   12
    SAVE BUDGET
 UBDSV1 SAVING "         STORAGE" ON UNIT  39 AT TIME STEP 12, STRESS PERIOD  24
 UBDSV2 SAVING "   CONSTANT HEAD" ON UNIT  39 AT TIME STEP 12, STRESS PERIOD  24
 UBDSV1 SAVING "FLOW RIGHT FACE " ON UNIT  39 AT TIME STEP 12, STRESS PERIOD  24
 UBDSV1 SAVING "FLOW FRONT FACE " ON UNIT  39 AT TIME STEP 12, STRESS PERIOD  24
 UBDSV1 SAVING "FLOW LOWER FACE " ON UNIT  39 AT TIME STEP 12, STRESS PERIOD  24
 UBDSV4 SAVING "           WELLS" ON UNIT  39 AT TIME STEP 12, STRESS PERIOD  24
 UBDSV3 SAVING "              ET" ON UNIT  39 AT TIME STEP 12, STRESS PERIOD  24
 UBDSV3 SAVING "        RECHARGE" ON UNIT  39 AT TIME STEP 12, STRESS PERIOD  24

 INTERPOLATION FOR HEAD OBS# 7909, ID 1427-25-27   CHANGED BECAUSE AT LEAST ONE
 NEIGHBORING CELL REQUIRED FOR INTERPOLATION IS DRY OR INACTIVE (OBS2BAS7SE)
1
  VOLUMETRIC BUDGET FOR ENTIRE MODEL AT END OF TIME STEP   12, STRESS PERIOD  24
  ------------------------------------------------------------------------------

     CUMULATIVE VOLUMES      L**3       RATES FOR THIS TIME STEP      L**3/T
     ------------------                 ------------------------

           IN:                                      IN:
           ---                                      ---
             STORAGE     =133775540224.0000               STORAGE     =    23433750.0000
       CONSTANT HEAD     = 11449899008.0000         CONSTANT HEAD     =     1427353.2500
               WELLS     = 10743957504.0000                 WELLS     =     1225642.0000
                  ET     =           0.0000                    ET     =           0.0000
            RECHARGE     =129683841024.0000              RECHARGE     =    19730916.0000

                TOTAL IN =285653237760.0000                  TOTAL IN =    45817664.0000

          OUT:                                     OUT:
          ----                                     ----
             STORAGE     = 14176281600.0000               STORAGE     =     1341925.2500
       CONSTANT HEAD     = 31768854528.0000         CONSTANT HEAD     =     3688785.2500
               WELLS     =231036026880.0000                 WELLS     =    40048184.0000
                  ET     =  8672048128.0000                    ET     =      738791.5000
            RECHARGE     =           0.0000              RECHARGE     =           0.0000

               TOTAL OUT =285653204992.0000                 TOTAL OUT =    45817688.0000

                IN - OUT =       32768.0000                  IN - OUT =         -24.0000

     PERCENT DISCREPANCY =           0.00         PERCENT DISCREPANCY =          -0.00






         TIME SUMMARY AT END OF TIME STEP   12 IN STRESS PERIOD   24
                    SECONDS     MINUTES      HOURS       DAYS        YEARS
                    -----------------------------------------------------------
   TIME STEP LENGTH 2.62800E+06  43800.      730.00      30.417     8.32763E-02
 STRESS PERIOD TIME 3.15360E+07 5.25600E+05  8760.0      365.00     0.99932    
         TOTAL TIME 7.57382E+08 1.26230E+07 2.10384E+05  8766.0      24.000    
1
1
                            STRESS PERIOD NO.   25, LENGTH =   366.0000    
                            -----------------------------------------------

                              NUMBER OF TIME STEPS =    12

                               MULTIPLIER FOR DELT =     1.000

                            INITIAL TIME STEP SIZE =   30.50000    

   1959 WELLS

 REUSING SURF FROM LAST STRESS PERIOD

 REUSING EVTR FROM LAST STRESS PERIOD

 REUSING EXDP FROM LAST STRESS PERIOD



                           RECHARGE
 READING ON UNIT   16 WITH FORMAT: (15F5.0)            


     63 TIME-VARIANT SPECIFIED-HEAD CELLS
 
 SOLVING FOR HEAD 
                                                   Max.-Head-Change                        Max.-Flux-Residual
  Residual-Control   Outer-Iter.   Inner-Iter.     Column Row Layer    Max.-Head-Change    Column Row Layer    Max.-Flux-Residual            L2-New               L2-Old           Solver-Max-Delh
          0                 1          11            65    2     2       0.9176076840E+02      58   66    2       0.4599802302E+06      0.1067199605E+07      0.2160075284E+03      0.9176076840E+02
          0                 2          10            72   15     1      -0.1712912359E+02      72   15    1      -0.5792577350E+06      0.6933023449E+06      0.1067199605E+07     -0.1712912359E+02
          0                 3           7            65    6     2      -0.8639723533E+00      72   15    1      -0.2712899051E+04      0.4285779081E+04      0.6933023449E+06     -0.8639723533E+00
          0                 4           4            66    5     2       0.8771313665E-01      71   15    1       0.1111984838E+03      0.1381591029E+03      0.4285779081E+04      0.8771313665E-01
          0                 5           3            66    5     2       0.1319441814E-01      71   15    1       0.1050820411E+02      0.1378688092E+02      0.1381591029E+03      0.1319441814E-01
          0                 6           2            66    5     2       0.1983691728E-02      71   15    1       0.9919723645E+00      0.1497881736E+01      0.1378688092E+02      0.1983691728E-02

    ------------------------------------------------
       NWT REQUIRED            6 OUTER ITERATIONS 
       AND A TOTAL OF         37 INNER ITERATIONS.
    ------------------------------------------------

 NO OUTPUT CONTROL FOR STRESS PERIOD   25   TIME STEP    1
 
 SOLVING FOR HEAD 
                                                   Max.-Head-Change                        Max.-Flux-Residual
  Residual-Control   Outer-Iter.   Inner-Iter.     Column Row Layer    Max.-Head-Change    Column Row Layer    Max.-Flux-Residual            L2-New               L2-Old           Solver-Max-Delh
          0                 1          11            59   85     3       0.4991712516E+01      58   66    1       0.2133132003E+06      0.6930062291E+06      0.1497881736E+01      0.4991712516E+01
          0                 2          10            20   42     2      -0.2124229497E+01      70   17    1      -0.2466742356E+05      0.7588962272E+05      0.6930062291E+06     -0.2124229497E+01
          0                 3           7            20   42     2       0.4181564214E+00      15    2    1      -0.6954876290E+04      0.7138877926E+04      0.7588962272E+05      0.4181564214E+00
          0                 4           5            15    2     1      -0.1141232296E-01      15    2    1      -0.6270135519E+03      0.6297267650E+03      0.7138877926E+04     -0.1141232296E-01
          0                 5           3            15    2     1      -0.1026303096E-02      15    2    1      -0.5637727192E+02      0.5660237566E+02      0.6297267650E+03     -0.1026303096E-02

    ------------------------------------------------
       NWT REQUIRED            5 OUTER ITERATIONS 
       AND A TOTAL OF         36 INNER ITERATIONS.
    ------------------------------------------------

 NO OUTPUT CONTROL FOR STRESS PERIOD   25   TIME STEP    2
 
 SOLVING FOR HEAD 
                                                   Max.-Head-Change                        Max.-Flux-Residual
  Residual-Control   Outer-Iter.   Inner-Iter.     Column Row Layer    Max.-Head-Change    Column Row Layer    Max.-Flux-Residual            L2-New               L2-Old           Solver-Max-Delh
          0                 1          11            71   16     1       0.3039018048E+01      58   66    1       0.1262142614E+06      0.5912313241E+06      0.5660237566E+02      0.3039018048E+01
          0                 2          10            66   25     1      -0.5229556035E+00      66   25    1      -0.2421851857E+05      0.6488463644E+05      0.5912313241E+06     -0.5229556035E+00
          0                 3           6            15    2     1       0.1337144048E-01      15    2    1       0.3380416757E+03      0.3638544324E+03      0.6488463644E+05      0.1337144048E-01
          0                 4           3            91   77     2      -0.2117638809E-03      62   46    1      -0.5243578672E+01      0.5335457293E+01      0.3638544324E+03     -0.2117638809E-03

    ------------------------------------------------
       NWT REQUIRED            4 OUTER ITERATIONS 
       AND A TOTAL OF         30 INNER ITERATIONS.
    ------------------------------------------------

 NO OUTPUT CONTROL FOR STRESS PERIOD   25   TIME STEP    3
 
 SOLVING FOR HEAD 
                                                   Max.-Head-Change                        Max.-Flux-Residual
  Residual-Control   Outer-Iter.   Inner-Iter.     Column Row Layer    Max.-Head-Change    Column Row Layer    Max.-Flux-Residual            L2-New               L2-Old           Solver-Max-Delh
          0                 1          11            71   16     1       0.2856819094E+01      58   66    1       0.7691376910E+05      0.5422899977E+06      0.5335457293E+01      0.2856819094E+01
          0                 2          10            21   44     2      -0.6624414340E+00      58   66    1      -0.7908852147E+04      0.5583546827E+05      0.5422899977E+06     -0.6624414340E+00
          0                 3           6            21   44     2       0.5706730189E-01      57  105    1      -0.1504613362E+04      0.1811624696E+04      0.5583546827E+05      0.5706730189E-01
          0                 4           4            57  105     1      -0.2487971894E-02      57  105    1      -0.1354592160E+03      0.1356451742E+03      0.1811624696E+04     -0.2487971894E-02

    ------------------------------------------------
       NWT REQUIRED            4 OUTER ITERATIONS 
       AND A TOTAL OF         31 INNER ITERATIONS.
    ------------------------------------------------

 NO OUTPUT CONTROL FOR STRESS PERIOD   25   TIME STEP    4
 
 SOLVING FOR HEAD 
                                                   Max.-Head-Change                        Max.-Flux-Residual
  Residual-Control   Outer-Iter.   Inner-Iter.     Column Row Layer    Max.-Head-Change    Column Row Layer    Max.-Flux-Residual            L2-New               L2-Old           Solver-Max-Delh
          0                 1          11            71   16     1       0.2687769227E+01      71   16    1       0.7119484957E+05      0.5144682872E+06      0.1356451742E+03      0.2687769227E+01
          0                 2          10            72   15     2       0.1564768290E+01      73   14    1      -0.4504775173E+05      0.7097115153E+05      0.5144682872E+06      0.1564768290E+01
          0                 3           7            72   15     2      -0.1421004004E+00      35   18    2      -0.1809523342E+04      0.2617493887E+04      0.7097115153E+05     -0.1421004004E+00
          0                 4           5            35   18     2      -0.5070021016E-02      35   18    2      -0.1629924465E+03      0.1638734156E+03      0.2617493887E+04     -0.5070021016E-02

    ------------------------------------------------
       NWT REQUIRED            4 OUTER ITERATIONS 
       AND A TOTAL OF         33 INNER ITERATIONS.
    ------------------------------------------------

 NO OUTPUT CONTROL FOR STRESS PERIOD   25   TIME STEP    5
 
 SOLVING FOR HEAD 
                                                   Max.-Head-Change                        Max.-Flux-Residual
  Residual-Control   Outer-Iter.   Inner-Iter.     Column Row Layer    Max.-Head-Change    Column Row Layer    Max.-Flux-Residual            L2-New               L2-Old           Solver-Max-Delh
          0                 1          11            72   15     2       0.4680077804E+01      71   16    1       0.6702245545E+05      0.4962644752E+06      0.1638734156E+03      0.4680077804E+01
          0                 2          10            35   18     2      -0.4440219606E+01      64   28    2       0.1287974044E+05      0.5360725719E+05      0.4962644752E+06     -0.4440219606E+01
          0                 3           7            35   18     2       0.6602100797E+00      64   28    2      -0.1285292442E+04      0.2108107553E+04      0.5360725719E+05      0.6602100797E+00
          0                 4           5            35   18     2       0.1023356998E-01      35   17    2      -0.4831776566E+02      0.5192344547E+02      0.2108107553E+04      0.1023356998E-01
          0                 5           3            35   18     2       0.1564972964E-03      35   17    2      -0.4143315406E+01      0.4165748394E+01      0.5192344547E+02      0.1564972964E-03

    ------------------------------------------------
       NWT REQUIRED            5 OUTER ITERATIONS 
       AND A TOTAL OF         36 INNER ITERATIONS.
    ------------------------------------------------

 NO OUTPUT CONTROL FOR STRESS PERIOD   25   TIME STEP    6
 
 SOLVING FOR HEAD 
                                                   Max.-Head-Change                        Max.-Flux-Residual
  Residual-Control   Outer-Iter.   Inner-Iter.     Column Row Layer    Max.-Head-Change    Column Row Layer    Max.-Flux-Residual            L2-New               L2-Old           Solver-Max-Delh
          0                 1          11            72   15     1       0.2746542472E+01      72   15    1       0.7299813166E+05      0.4845081626E+06      0.4165748394E+01      0.2746542472E+01
          0                 2          10            72   15     1      -0.2508487418E+00      63   23    2      -0.7520570135E+04      0.5023452619E+05      0.4845081626E+06     -0.2508487418E+00
          0                 3           6            66   25     2      -0.2022604131E-01      66   25    2      -0.5253042861E+03      0.6108884948E+03      0.5023452619E+05     -0.2022604131E-01
          0                 4           2            91   77     2      -0.1545862918E-03      67   24    2       0.1329315737E+01      0.1537837940E+01      0.6108884948E+03     -0.1545862918E-03

    ------------------------------------------------
       NWT REQUIRED            4 OUTER ITERATIONS 
       AND A TOTAL OF         29 INNER ITERATIONS.
    ------------------------------------------------

 NO OUTPUT CONTROL FOR STRESS PERIOD   25   TIME STEP    7
 
 SOLVING FOR HEAD 
                                                   Max.-Head-Change                        Max.-Flux-Residual
  Residual-Control   Outer-Iter.   Inner-Iter.     Column Row Layer    Max.-Head-Change    Column Row Layer    Max.-Flux-Residual            L2-New               L2-Old           Solver-Max-Delh
          0                 1          11            72   15     1       0.2577090899E+01      72   15    1       0.6844507936E+05      0.4745712256E+06      0.1537837940E+01      0.2577090899E+01
          0                 2          10            34   16     2      -0.4260114641E+00      72   15    1      -0.6886210459E+04      0.4872005338E+05      0.4745712256E+06     -0.4260114641E+00
          0                 3           6            34   16     2       0.3072830625E-01      24   32    1      -0.5821348511E+03      0.7916734210E+03      0.4872005338E+05      0.3072830625E-01
          0                 4           4            24   32     1      -0.1091976818E-02      24   32    1      -0.5240023302E+02      0.5250898536E+02      0.7916734210E+03     -0.1091976818E-02

    ------------------------------------------------
       NWT REQUIRED            4 OUTER ITERATIONS 
       AND A TOTAL OF         31 INNER ITERATIONS.
    ------------------------------------------------

 NO OUTPUT CONTROL FOR STRESS PERIOD   25   TIME STEP    8
 
 SOLVING FOR HEAD 
                                                   Max.-Head-Change                        Max.-Flux-Residual
  Residual-Control   Outer-Iter.   Inner-Iter.     Column Row Layer    Max.-Head-Change    Column Row Layer    Max.-Flux-Residual            L2-New               L2-Old           Solver-Max-Delh
          0                 1          11            34   16     2      -0.4749494392E+01      72   15    1       0.6422472311E+05      0.4669303775E+06      0.5250898536E+02     -0.4749494392E+01
          0                 2          10            70   19     2       0.1832494454E+01      70   19    2       0.2256227812E+05      0.5571034994E+05      0.4669303775E+06      0.1832494454E+01
          0                 3           7            70   19     2      -0.1661275049E+00      25   60    2      -0.3390731679E+04      0.4606332902E+04      0.5571034994E+05     -0.1661275049E+00
          0                 4           4            25   60     2      -0.4953661532E-02      25   60    2      -0.3052513667E+03      0.3053009861E+03      0.4606332902E+04     -0.4953661532E-02

    ------------------------------------------------
       NWT REQUIRED            4 OUTER ITERATIONS 
       AND A TOTAL OF         32 INNER ITERATIONS.
    ------------------------------------------------

 NO OUTPUT CONTROL FOR STRESS PERIOD   25   TIME STEP    9
 
 SOLVING FOR HEAD 
                                                   Max.-Head-Change                        Max.-Flux-Residual
  Residual-Control   Outer-Iter.   Inner-Iter.     Column Row Layer    Max.-Head-Change    Column Row Layer    Max.-Flux-Residual            L2-New               L2-Old           Solver-Max-Delh
          0                 1          11            70   19     2       0.3145546579E+01      72   15    1       0.6038911967E+05      0.4608904354E+06      0.3053009861E+03      0.3145546579E+01
          0                 2          10            78   63     1      -0.1022095227E+01      32   27    2       0.7316952794E+04      0.4784878371E+05      0.4608904354E+06     -0.1022095227E+01
          0                 3           6            78   63     1       0.7848868640E-01      13    1    1      -0.2538186032E+04      0.2696710656E+04      0.4784878371E+05      0.7848868640E-01
          0                 4           4            13    1     1      -0.4193693596E-02      13    1    1      -0.2285063298E+03      0.2285455204E+03      0.2696710656E+04     -0.4193693596E-02

    ------------------------------------------------
       NWT REQUIRED            4 OUTER ITERATIONS 
       AND A TOTAL OF         31 INNER ITERATIONS.
    ------------------------------------------------

 NO OUTPUT CONTROL FOR STRESS PERIOD   25   TIME STEP   10

 INTERPOLATION FOR HEAD OBS# 7916, ID 1705-25-328  CHANGED BECAUSE AT LEAST ONE
 NEIGHBORING CELL REQUIRED FOR INTERPOLATION IS DRY OR INACTIVE (OBS2BAS7SE)

 INTERPOLATION FOR HEAD OBS# 7919, ID 1066-25-335  CHANGED BECAUSE AT LEAST ONE
 NEIGHBORING CELL REQUIRED FOR INTERPOLATION IS DRY OR INACTIVE (OBS2BAS7SE)
 
 SOLVING FOR HEAD 
                                                   Max.-Head-Change                        Max.-Flux-Residual
  Residual-Control   Outer-Iter.   Inner-Iter.     Column Row Layer    Max.-Head-Change    Column Row Layer    Max.-Flux-Residual            L2-New               L2-Old           Solver-Max-Delh
          0                 1          11            72   15     1       0.2156166781E+01      70   19    1       0.6241295002E+05      0.4567402508E+06      0.2285455204E+03      0.2156166781E+01
          0                 2          10            70   17     2       0.6522983464E+00      32   33    2       0.1187002137E+05      0.4916171543E+05      0.4567402508E+06      0.6522983464E+00
          0                 3           6            70   17     2      -0.5927681644E-01      70   17    2      -0.5569180732E+03      0.9109441404E+03      0.4916171543E+05     -0.5927681644E-01
          0                 4           3            91   77     2      -0.1180086531E-03      63    2    3       0.1742719132E+01      0.1914906096E+01      0.9109441404E+03     -0.1180086531E-03

    ------------------------------------------------
       NWT REQUIRED            4 OUTER ITERATIONS 
       AND A TOTAL OF         30 INNER ITERATIONS.
    ------------------------------------------------

 NO OUTPUT CONTROL FOR STRESS PERIOD   25   TIME STEP   11

 INTERPOLATION FOR HEAD OBS# 7898, ID 3200-25-336  CHANGED BECAUSE AT LEAST ONE
 NEIGHBORING CELL REQUIRED FOR INTERPOLATION IS DRY OR INACTIVE (OBS2BAS7SE)
 
 SOLVING FOR HEAD 
                                                   Max.-Head-Change                        Max.-Flux-Residual
  Residual-Control   Outer-Iter.   Inner-Iter.     Column Row Layer    Max.-Head-Change    Column Row Layer    Max.-Flux-Residual            L2-New               L2-Old           Solver-Max-Delh
          0                 1          11            70   17     2       0.2312349973E+01      70   19    1       0.5817512819E+05      0.4515914503E+06      0.1914906096E+01      0.2312349973E+01
          0                 2          10            34   32     1      -0.1387460536E+01      26   32    2       0.1118402153E+05      0.4855887912E+05      0.4515914503E+06     -0.1387460536E+01
          0                 3           6            34   32     1       0.1210223625E+00      34   32    1       0.9396429787E+03      0.1286705797E+04      0.4855887912E+05      0.1210223625E+00
          0                 4           3            34   32     1       0.4440725895E-03      34   32    1       0.3329829060E+01      0.3511504901E+01      0.1286705797E+04      0.4440725895E-03

    ------------------------------------------------
       NWT REQUIRED            4 OUTER ITERATIONS 
       AND A TOTAL OF         30 INNER ITERATIONS.
    ------------------------------------------------

 OUTPUT CONTROL FOR STRESS PERIOD   25   TIME STEP   12
    SAVE BUDGET
 UBDSV1 SAVING "         STORAGE" ON UNIT  39 AT TIME STEP 12, STRESS PERIOD  25
 UBDSV2 SAVING "   CONSTANT HEAD" ON UNIT  39 AT TIME STEP 12, STRESS PERIOD  25
 UBDSV1 SAVING "FLOW RIGHT FACE " ON UNIT  39 AT TIME STEP 12, STRESS PERIOD  25
 UBDSV1 SAVING "FLOW FRONT FACE " ON UNIT  39 AT TIME STEP 12, STRESS PERIOD  25
 UBDSV1 SAVING "FLOW LOWER FACE " ON UNIT  39 AT TIME STEP 12, STRESS PERIOD  25
 UBDSV4 SAVING "           WELLS" ON UNIT  39 AT TIME STEP 12, STRESS PERIOD  25
 UBDSV3 SAVING "              ET" ON UNIT  39 AT TIME STEP 12, STRESS PERIOD  25
 UBDSV3 SAVING "        RECHARGE" ON UNIT  39 AT TIME STEP 12, STRESS PERIOD  25

 INTERPOLATION FOR HEAD OBS# 7966, ID 2928-26-18   CHANGED BECAUSE AT LEAST ONE
 NEIGHBORING CELL REQUIRED FOR INTERPOLATION IS DRY OR INACTIVE (OBS2BAS7SE)

 INTERPOLATION FOR HEAD OBS# 7970, ID 2789-26-18   CHANGED BECAUSE AT LEAST ONE
 NEIGHBORING CELL REQUIRED FOR INTERPOLATION IS DRY OR INACTIVE (OBS2BAS7SE)

 INTERPOLATION FOR HEAD OBS# 7983, ID 2931-26-22   CHANGED BECAUSE AT LEAST ONE
 NEIGHBORING CELL REQUIRED FOR INTERPOLATION IS DRY OR INACTIVE (OBS2BAS7SE)

 INTERPOLATION FOR HEAD OBS# 7993, ID 2303-26-1    CHANGED BECAUSE AT LEAST ONE
 NEIGHBORING CELL REQUIRED FOR INTERPOLATION IS DRY OR INACTIVE (OBS2BAS7SE)

 INTERPOLATION FOR HEAD OBS# 8004, ID 1930-26-14   CHANGED BECAUSE AT LEAST ONE
 NEIGHBORING CELL REQUIRED FOR INTERPOLATION IS DRY OR INACTIVE (OBS2BAS7SE)

 INTERPOLATION FOR HEAD OBS# 8023, ID 1428-26-1    CHANGED BECAUSE AT LEAST ONE
 NEIGHBORING CELL REQUIRED FOR INTERPOLATION IS DRY OR INACTIVE (OBS2BAS7SE)

 INTERPOLATION FOR HEAD OBS# 8107, ID 846-26-13    CHANGED BECAUSE AT LEAST ONE
 NEIGHBORING CELL REQUIRED FOR INTERPOLATION IS DRY OR INACTIVE (OBS2BAS7SE)
1
  VOLUMETRIC BUDGET FOR ENTIRE MODEL AT END OF TIME STEP   12, STRESS PERIOD  25
  ------------------------------------------------------------------------------

     CUMULATIVE VOLUMES      L**3       RATES FOR THIS TIME STEP      L**3/T
     ------------------                 ------------------------

           IN:                                      IN:
           ---                                      ---
             STORAGE     =141113245696.0000               STORAGE     =    19304214.0000
       CONSTANT HEAD     = 11958222848.0000         CONSTANT HEAD     =     1371505.2500
               WELLS     = 11192543232.0000                 WELLS     =     1225642.0000
                  ET     =           0.0000                    ET     =           0.0000
            RECHARGE     =138978295808.0000              RECHARGE     =    25394696.0000

                TOTAL IN =303242313728.0000                  TOTAL IN =    47296056.0000

          OUT:                                     OUT:
          ----                                     ----
             STORAGE     = 15979548672.0000               STORAGE     =     4213629.5000
       CONSTANT HEAD     = 33092440064.0000         CONSTANT HEAD     =     3569425.0000
               WELLS     =245240365056.0000                 WELLS     =    38809840.0000
                  ET     =  8929881088.0000                    ET     =      703163.1250
            RECHARGE     =           0.0000              RECHARGE     =           0.0000

               TOTAL OUT =303242215424.0000                 TOTAL OUT =    47296060.0000

                IN - OUT =       98304.0000                  IN - OUT =          -4.0000

     PERCENT DISCREPANCY =           0.00         PERCENT DISCREPANCY =          -0.00






         TIME SUMMARY AT END OF TIME STEP   12 IN STRESS PERIOD   25
                    SECONDS     MINUTES      HOURS       DAYS        YEARS
                    -----------------------------------------------------------
   TIME STEP LENGTH 2.63520E+06  43920.      732.00      30.500     8.35044E-02
 STRESS PERIOD TIME 3.16224E+07 5.27040E+05  8784.0      366.00      1.0021    
         TOTAL TIME 7.89004E+08 1.31501E+07 2.19168E+05  9132.0      25.002    
1
1
                            STRESS PERIOD NO.   26, LENGTH =   365.0000    
                            -----------------------------------------------

                              NUMBER OF TIME STEPS =    12

                               MULTIPLIER FOR DELT =     1.000

                            INITIAL TIME STEP SIZE =   30.41667    

   1966 WELLS

 REUSING SURF FROM LAST STRESS PERIOD

 REUSING EVTR FROM LAST STRESS PERIOD

 REUSING EXDP FROM LAST STRESS PERIOD



                           RECHARGE
 READING ON UNIT   16 WITH FORMAT: (15F5.0)            


     63 TIME-VARIANT SPECIFIED-HEAD CELLS
 
 SOLVING FOR HEAD 
                                                   Max.-Head-Change                        Max.-Flux-Residual
  Residual-Control   Outer-Iter.   Inner-Iter.     Column Row Layer    Max.-Head-Change    Column Row Layer    Max.-Flux-Residual            L2-New               L2-Old           Solver-Max-Delh
          0                 1          11            65    2     2      -0.6169149351E+02      32   21    2      -0.5890127964E+06      0.1022756732E+07      0.3511504901E+01     -0.6169149351E+02
          0                 2          10            65    6     2      -0.1686140832E+02      32   21    2       0.5764798997E+05      0.1172473578E+06      0.1022756732E+07     -0.1686140832E+02
          0                 3           8            65    3     2      -0.2031075954E+01      65    3    2      -0.5816157467E+05      0.5833012017E+05      0.1172473578E+06     -0.2031075954E+01
          0                 4           6            65    3     2      -0.1854374355E+00      65    3    2      -0.5298288563E+04      0.5312066041E+04      0.5833012017E+05     -0.1854374355E+00
          0                 5           5            65    3     2      -0.1669640292E-01      65    3    2      -0.4768870136E+03      0.4781670387E+03      0.5312066041E+04     -0.1669640292E-01
          0                 6           3            66    3     2       0.1550170533E-02      65    3    2      -0.4282937601E+02      0.4296146409E+02      0.4781670387E+03      0.1550170533E-02

    ------------------------------------------------
       NWT REQUIRED            6 OUTER ITERATIONS 
       AND A TOTAL OF         43 INNER ITERATIONS.
    ------------------------------------------------

 NO OUTPUT CONTROL FOR STRESS PERIOD   26   TIME STEP    1

 INTERPOLATION FOR HEAD OBS# 8119, ID 1168-26-35   CHANGED BECAUSE AT LEAST ONE
 NEIGHBORING CELL REQUIRED FOR INTERPOLATION IS DRY OR INACTIVE (OBS2BAS7SE)
 
 SOLVING FOR HEAD 
                                                   Max.-Head-Change                        Max.-Flux-Residual
  Residual-Control   Outer-Iter.   Inner-Iter.     Column Row Layer    Max.-Head-Change    Column Row Layer    Max.-Flux-Residual            L2-New               L2-Old           Solver-Max-Delh
          0                 1          11            65    6     2      -0.1186515117E+02      32   21    2      -0.1786921575E+06      0.6126537014E+06      0.4296146409E+02     -0.1186515117E+02
          0                 2          10            65    3     2      -0.2314254104E+02      23   46    2      -0.1930375256E+05      0.6805106378E+05      0.6126537014E+06     -0.2314254104E+02
          0                 3           7            65    3     2       0.1062189088E+01      32   33    1       0.1459719832E+04      0.2311639261E+04      0.6805106378E+05      0.1062189088E+01
          0                 4           4            65    3     2       0.5513292648E-01      65    3    2       0.2691491277E+02      0.3017791695E+02      0.2311639261E+04      0.5513292648E-01
          0                 5           2            65    3     2       0.2854726373E-02      65    3    3       0.2135673136E+01      0.2692500286E+01      0.3017791695E+02      0.2854726373E-02

    ------------------------------------------------
       NWT REQUIRED            5 OUTER ITERATIONS 
       AND A TOTAL OF         34 INNER ITERATIONS.
    ------------------------------------------------

 NO OUTPUT CONTROL FOR STRESS PERIOD   26   TIME STEP    2

 INTERPOLATION FOR HEAD OBS# 8167, ID 683-26-91    CHANGED BECAUSE AT LEAST ONE
 NEIGHBORING CELL REQUIRED FOR INTERPOLATION IS DRY OR INACTIVE (OBS2BAS7SE)

 INTERPOLATION FOR HEAD OBS# 8171, ID 451-26-85    CHANGED BECAUSE AT LEAST ONE
 NEIGHBORING CELL REQUIRED FOR INTERPOLATION IS DRY OR INACTIVE (OBS2BAS7SE)
 
 SOLVING FOR HEAD 
                                                   Max.-Head-Change                        Max.-Flux-Residual
  Residual-Control   Outer-Iter.   Inner-Iter.     Column Row Layer    Max.-Head-Change    Column Row Layer    Max.-Flux-Residual            L2-New               L2-Old           Solver-Max-Delh
          0                 1          11            23   46     2       0.4204150749E+01      23   46    2       0.8594429296E+05      0.5246744855E+06      0.2692500286E+01      0.4204150749E+01
          0                 2          10            23   46     2      -0.5064301495E+00      23   46    2      -0.1238136151E+05      0.5370337922E+05      0.5246744855E+06     -0.5064301495E+00
          0                 3           7            19   39     2      -0.2132906282E+00      19   39    2      -0.5266770567E+04      0.5653715154E+04      0.5370337922E+05     -0.2132906282E+00
          0                 4           6            19   39     2      -0.1949560500E-01      19   39    2      -0.4801863633E+03      0.5132053536E+03      0.5653715154E+04     -0.1949560500E-01
          0                 5           5            19   39     2      -0.1755378458E-02      19   39    2      -0.4322161474E+02      0.4619045325E+02      0.5132053536E+03     -0.1755378458E-02

    ------------------------------------------------
       NWT REQUIRED            5 OUTER ITERATIONS 
       AND A TOTAL OF         39 INNER ITERATIONS.
    ------------------------------------------------

 NO OUTPUT CONTROL FOR STRESS PERIOD   26   TIME STEP    3
 
 SOLVING FOR HEAD 
                                                   Max.-Head-Change                        Max.-Flux-Residual
  Residual-Control   Outer-Iter.   Inner-Iter.     Column Row Layer    Max.-Head-Change    Column Row Layer    Max.-Flux-Residual            L2-New               L2-Old           Solver-Max-Delh
          0                 1          11            69   21     1      -0.4736756978E+01      89   66    1       0.5990172487E+05      0.4860448907E+06      0.4619045325E+02     -0.4736756978E+01
          0                 2          10            65    5     2      -0.5207048624E+01      29   33    1      -0.1571105747E+05      0.5223917683E+05      0.4860448907E+06     -0.5207048624E+01
          0                 3           7            19   39     2       0.2520317320E+00      29   33    1       0.1581876556E+04      0.2084560769E+04      0.5223917683E+05      0.2520317320E+00
          0                 4           4            65    5     2       0.1067794256E-01      65    5    2       0.5632870937E+01      0.9691970031E+01      0.2084560769E+04      0.1067794256E-01
          0                 5           2            65    5     2       0.5170096398E-03      65    5    3       0.5016917773E+00      0.7445039921E+00      0.9691970031E+01      0.5170096398E-03

    ------------------------------------------------
       NWT REQUIRED            5 OUTER ITERATIONS 
       AND A TOTAL OF         34 INNER ITERATIONS.
    ------------------------------------------------

 NO OUTPUT CONTROL FOR STRESS PERIOD   26   TIME STEP    4

 INTERPOLATION FOR HEAD OBS# 7943, ID 3016-26-123  CHANGED BECAUSE AT LEAST ONE
 NEIGHBORING CELL REQUIRED FOR INTERPOLATION IS DRY OR INACTIVE (OBS2BAS7SE)
 
 SOLVING FOR HEAD 
                                                   Max.-Head-Change                        Max.-Flux-Residual
  Residual-Control   Outer-Iter.   Inner-Iter.     Column Row Layer    Max.-Head-Change    Column Row Layer    Max.-Flux-Residual            L2-New               L2-Old           Solver-Max-Delh
          0                 1          11            65    5     2      -0.2032113506E+02      89   66    1       0.5620793547E+05      0.4641697602E+06      0.7445039921E+00     -0.2032113506E+02
          0                 2          10            20   41     2      -0.3837018830E+01      26   38    2       0.1111893883E+05      0.5121151683E+05      0.4641697602E+06     -0.3837018830E+01
          0                 3           6            20   41     2       0.3144328167E+00      20   41    2       0.6806943775E+03      0.1116507525E+04      0.5121151683E+05      0.3144328167E+00
          0                 4           4            85   62     1       0.4195439645E-02      62  116    1      -0.2956582716E+02      0.3087106496E+02      0.1116507525E+04      0.4195439645E-02

    ------------------------------------------------
       NWT REQUIRED            4 OUTER ITERATIONS 
       AND A TOTAL OF         31 INNER ITERATIONS.
    ------------------------------------------------

 NO OUTPUT CONTROL FOR STRESS PERIOD   26   TIME STEP    5
 
 SOLVING FOR HEAD 
                                                   Max.-Head-Change                        Max.-Flux-Residual
  Residual-Control   Outer-Iter.   Inner-Iter.     Column Row Layer    Max.-Head-Change    Column Row Layer    Max.-Flux-Residual            L2-New               L2-Old           Solver-Max-Delh
          0                 1          11            85   62     1      -0.7130322453E+01      89   66    1       0.5278045124E+05      0.4493184973E+06      0.3087106496E+02     -0.7130322453E+01
          0                 2          10            70   46     1      -0.9729657197E+00      17    7    2       0.7933321745E+04      0.4570342217E+05      0.4493184973E+06     -0.9729657197E+00
          0                 3           6            70   46     1       0.7671084244E-01      20   40    2      -0.1177438376E+04      0.1280525076E+04      0.4570342217E+05      0.7671084244E-01
          0                 4           5            20   40     2      -0.4630773304E-02      20   40    2      -0.1061317219E+03      0.1061904671E+03      0.1280525076E+04     -0.4630773304E-02

    ------------------------------------------------
       NWT REQUIRED            4 OUTER ITERATIONS 
       AND A TOTAL OF         32 INNER ITERATIONS.
    ------------------------------------------------

 NO OUTPUT CONTROL FOR STRESS PERIOD   26   TIME STEP    6
 
 SOLVING FOR HEAD 
                                                   Max.-Head-Change                        Max.-Flux-Residual
  Residual-Control   Outer-Iter.   Inner-Iter.     Column Row Layer    Max.-Head-Change    Column Row Layer    Max.-Flux-Residual            L2-New               L2-Old           Solver-Max-Delh
          0                 1          11            28   32     1      -0.1469661241E+01      88   65    1       0.5049243994E+05      0.4392921740E+06      0.1061904671E+03     -0.1469661241E+01
          0                 2          10            20   40     2      -0.5884654980E+01      20   40    2      -0.1047831847E+05      0.4628830930E+05      0.4392921740E+06     -0.5884654980E+01
          0                 3           6            20   40     2       0.4728211306E+00      20   40    2       0.9251596209E+03      0.1087593267E+04      0.4628830930E+05      0.4728211306E+00
          0                 4           5            20   40     2       0.4509660553E-02      20   40    2       0.8709753803E+01      0.1102547628E+02      0.1087593267E+04      0.4509660553E-02

    ------------------------------------------------
       NWT REQUIRED            4 OUTER ITERATIONS 
       AND A TOTAL OF         32 INNER ITERATIONS.
    ------------------------------------------------

 NO OUTPUT CONTROL FOR STRESS PERIOD   26   TIME STEP    7
 
 SOLVING FOR HEAD 
                                                   Max.-Head-Change                        Max.-Flux-Residual
  Residual-Control   Outer-Iter.   Inner-Iter.     Column Row Layer    Max.-Head-Change    Column Row Layer    Max.-Flux-Residual            L2-New               L2-Old           Solver-Max-Delh
          0                 1          11            91   67     2       0.1334217958E+01      88   65    1       0.4868627217E+05      0.4318218185E+06      0.1102547628E+02      0.1334217958E+01
          0                 2          10            21   43     2      -0.2387410443E+01      25   32    2       0.1044791815E+05      0.4525397452E+05      0.4318218185E+06     -0.2387410443E+01
          0                 3           7            21   43     2       0.2030345749E+00      21   43    2       0.5929372926E+03      0.7991736697E+03      0.4525397452E+05      0.2030345749E+00
          0                 4           4            21   43     2       0.1145628391E-02      21   43    2       0.3264492666E+01      0.3524001090E+01      0.7991736697E+03      0.1145628391E-02

    ------------------------------------------------
       NWT REQUIRED            4 OUTER ITERATIONS 
       AND A TOTAL OF         32 INNER ITERATIONS.
    ------------------------------------------------

 NO OUTPUT CONTROL FOR STRESS PERIOD   26   TIME STEP    8
 
 SOLVING FOR HEAD 
                                                   Max.-Head-Change                        Max.-Flux-Residual
  Residual-Control   Outer-Iter.   Inner-Iter.     Column Row Layer    Max.-Head-Change    Column Row Layer    Max.-Flux-Residual            L2-New               L2-Old           Solver-Max-Delh
          0                 1          11            21   43     2      -0.1518746991E+01      88   65    1       0.4699000457E+05      0.4258211098E+06      0.3524001090E+01     -0.1518746991E+01
          0                 2          10            25   32     1      -0.3531583828E+00      90   67    1      -0.1208223036E+05      0.5011817674E+05      0.4258211098E+06     -0.3531583828E+00
          0                 3           6            88   67     1      -0.1738806079E+00      88   67    1      -0.7769845162E+04      0.7839943507E+04      0.5011817674E+05     -0.1738806079E+00
          0                 4           3            88   67     1      -0.1566440067E-01      88   67    1      -0.7003574776E+03      0.7006859838E+03      0.7839943507E+04     -0.1566440067E-01
          0                 5           1            88   67     1      -0.1408494076E-02      88   67    1      -0.6296623901E+02      0.6299550849E+02      0.7006859838E+03     -0.1408494076E-02

    ------------------------------------------------
       NWT REQUIRED            5 OUTER ITERATIONS 
       AND A TOTAL OF         31 INNER ITERATIONS.
    ------------------------------------------------

 NO OUTPUT CONTROL FOR STRESS PERIOD   26   TIME STEP    9
 
 SOLVING FOR HEAD 
                                                   Max.-Head-Change                        Max.-Flux-Residual
  Residual-Control   Outer-Iter.   Inner-Iter.     Column Row Layer    Max.-Head-Change    Column Row Layer    Max.-Flux-Residual            L2-New               L2-Old           Solver-Max-Delh
          0                 1          11            92   77     2      -0.5458653251E+02      88   65    1       0.4537810281E+05      0.4203587243E+06      0.6299550849E+02     -0.5458653251E+02
          0                 2          10            88   67     1      -0.1311925560E+02      88   67    1      -0.1335482990E+05      0.4663340477E+05      0.4203587243E+06     -0.1311925560E+02
          0                 3           7            88   67     1       0.7250069403E+00      88   67    2      -0.1329427085E+04      0.1835207133E+04      0.4663340477E+05      0.7250069403E+00
          0                 4           3            88   67     1       0.3012103190E-01      88   67    1       0.3375204751E+02      0.3422517216E+02      0.1835207133E+04      0.3012103190E-01
          0                 5           2            88   67     1       0.1056192936E-02      88   67    2       0.3024538081E+01      0.3344817250E+01      0.3422517216E+02      0.1056192936E-02

    ------------------------------------------------
       NWT REQUIRED            5 OUTER ITERATIONS 
       AND A TOTAL OF         33 INNER ITERATIONS.
    ------------------------------------------------

 NO OUTPUT CONTROL FOR STRESS PERIOD   26   TIME STEP   10
 
 SOLVING FOR HEAD 
                                                   Max.-Head-Change                        Max.-Flux-Residual
  Residual-Control   Outer-Iter.   Inner-Iter.     Column Row Layer    Max.-Head-Change    Column Row Layer    Max.-Flux-Residual            L2-New               L2-Old           Solver-Max-Delh
          0                 1          11            19   38     2      -0.2473352359E+01      88   65    1       0.4381944032E+05      0.4158107438E+06      0.3344817250E+01     -0.2473352359E+01
          0                 2          10            33   32     1      -0.1582852812E+01      33   32    1      -0.9209430188E+04      0.4343215827E+05      0.4158107438E+06     -0.1582852812E+01
          0                 3           6            33   32     1       0.1368167515E+00      33   32    1       0.8772013208E+03      0.1187092422E+04      0.4343215827E+05      0.1368167515E+00
          0                 4           3            81   56     1       0.9078543747E-03      33   32    1       0.3776417017E+01      0.4466433616E+01      0.1187092422E+04      0.9078543747E-03

    ------------------------------------------------
       NWT REQUIRED            4 OUTER ITERATIONS 
       AND A TOTAL OF         30 INNER ITERATIONS.
    ------------------------------------------------

 NO OUTPUT CONTROL FOR STRESS PERIOD   26   TIME STEP   11

 INTERPOLATION FOR HEAD OBS# 3707, ID 1471-26-349  CHANGED BECAUSE AT LEAST ONE
 NEIGHBORING CELL REQUIRED FOR INTERPOLATION IS DRY OR INACTIVE (OBS2BAS7SE)
 
 SOLVING FOR HEAD 
                                                   Max.-Head-Change                        Max.-Flux-Residual
  Residual-Control   Outer-Iter.   Inner-Iter.     Column Row Layer    Max.-Head-Change    Column Row Layer    Max.-Flux-Residual            L2-New               L2-Old           Solver-Max-Delh
          0                 1          11            81   56     1      -0.1693713914E+01      88   65    1       0.4231771813E+05      0.4129548397E+06      0.4466433616E+01     -0.1693713914E+01
          0                 2          10            30   33     1      -0.5288290665E+00      29   25    1      -0.9372604134E+04      0.4389980517E+05      0.4129548397E+06     -0.5288290665E+00
          0                 3           6            30   33     1       0.4719629627E-01      29   25    1       0.9256517469E+03      0.1435607968E+04      0.4389980517E+05      0.4719629627E-01
          0                 4           3            30   33     1       0.8708169015E-04      30   33    1       0.1300397009E+01      0.1843914376E+01      0.1435607968E+04      0.8708169015E-04

    ------------------------------------------------
       NWT REQUIRED            4 OUTER ITERATIONS 
       AND A TOTAL OF         30 INNER ITERATIONS.
    ------------------------------------------------

 OUTPUT CONTROL FOR STRESS PERIOD   26   TIME STEP   12
    SAVE BUDGET
    SAVE HEAD FOR LAYERS:   1  2  3
 UBDSV1 SAVING "         STORAGE" ON UNIT  39 AT TIME STEP 12, STRESS PERIOD  26
 UBDSV2 SAVING "   CONSTANT HEAD" ON UNIT  39 AT TIME STEP 12, STRESS PERIOD  26
 UBDSV1 SAVING "FLOW RIGHT FACE " ON UNIT  39 AT TIME STEP 12, STRESS PERIOD  26
 UBDSV1 SAVING "FLOW FRONT FACE " ON UNIT  39 AT TIME STEP 12, STRESS PERIOD  26
 UBDSV1 SAVING "FLOW LOWER FACE " ON UNIT  39 AT TIME STEP 12, STRESS PERIOD  26
 UBDSV4 SAVING "           WELLS" ON UNIT  39 AT TIME STEP 12, STRESS PERIOD  26
 UBDSV3 SAVING "              ET" ON UNIT  39 AT TIME STEP 12, STRESS PERIOD  26
 UBDSV3 SAVING "        RECHARGE" ON UNIT  39 AT TIME STEP 12, STRESS PERIOD  26

 INTERPOLATION FOR HEAD OBS# 1738, ID 2615-27-20   CHANGED BECAUSE AT LEAST ONE
 NEIGHBORING CELL REQUIRED FOR INTERPOLATION IS DRY OR INACTIVE (OBS2BAS7SE)

 INTERPOLATION FOR HEAD OBS# 6238, ID 1164-27-12   CHANGED BECAUSE AT LEAST ONE
 NEIGHBORING CELL REQUIRED FOR INTERPOLATION IS DRY OR INACTIVE (OBS2BAS7SE)

 INTERPOLATION FOR HEAD OBS# 6261, ID 987-27-12    CHANGED BECAUSE AT LEAST ONE
 NEIGHBORING CELL REQUIRED FOR INTERPOLATION IS DRY OR INACTIVE (OBS2BAS7SE)

 HEAD WILL BE SAVED ON UNIT   31 AT END OF TIME STEP   12, STRESS PERIOD   26
1
  VOLUMETRIC BUDGET FOR ENTIRE MODEL AT END OF TIME STEP   12, STRESS PERIOD  26
  ------------------------------------------------------------------------------

     CUMULATIVE VOLUMES      L**3       RATES FOR THIS TIME STEP      L**3/T
     ------------------                 ------------------------

           IN:                                      IN:
           ---                                      ---
             STORAGE     =148821819392.0000               STORAGE     =    20373908.0000
       CONSTANT HEAD     = 12483459072.0000         CONSTANT HEAD     =     1482734.7500
               WELLS     = 11639900160.0000                 WELLS     =     1225642.0000
                  ET     =           0.0000                    ET     =           0.0000
            RECHARGE     =148165197824.0000              RECHARGE     =    25169380.0000

                TOTAL IN =321110376448.0000                  TOTAL IN =    48251664.0000

          OUT:                                     OUT:
          ----                                     ----
             STORAGE     = 17080460288.0000               STORAGE     =     2170964.5000
       CONSTANT HEAD     = 34380787712.0000         CONSTANT HEAD     =     3504170.7500
               WELLS     =260346740736.0000                 WELLS     =    41387432.0000
                  ET     =  9302207488.0000                    ET     =     1189108.6250
            RECHARGE     =           0.0000              RECHARGE     =           0.0000

               TOTAL OUT =321110212608.0000                 TOTAL OUT =    48251676.0000

                IN - OUT =      163840.0000                  IN - OUT =         -12.0000

     PERCENT DISCREPANCY =           0.00         PERCENT DISCREPANCY =          -0.00






         TIME SUMMARY AT END OF TIME STEP   12 IN STRESS PERIOD   26
                    SECONDS     MINUTES      HOURS       DAYS        YEARS
                    -----------------------------------------------------------
   TIME STEP LENGTH 2.62800E+06  43800.      730.00      30.417     8.32763E-02
 STRESS PERIOD TIME 3.15360E+07 5.25600E+05  8760.0      365.00     0.99932    
         TOTAL TIME 8.20541E+08 1.36757E+07 2.27928E+05  9497.0      26.001    
1
1
                            STRESS PERIOD NO.   27, LENGTH =   365.0000    
                            -----------------------------------------------

                              NUMBER OF TIME STEPS =    12

                               MULTIPLIER FOR DELT =     1.000

                            INITIAL TIME STEP SIZE =   30.41667    

   1462 WELLS

 REUSING SURF FROM LAST STRESS PERIOD

 REUSING EVTR FROM LAST STRESS PERIOD

 REUSING EXDP FROM LAST STRESS PERIOD



                           RECHARGE
 READING ON UNIT   16 WITH FORMAT: (15F5.0)            


     63 TIME-VARIANT SPECIFIED-HEAD CELLS
 
 SOLVING FOR HEAD 
                                                   Max.-Head-Change                        Max.-Flux-Residual
  Residual-Control   Outer-Iter.   Inner-Iter.     Column Row Layer    Max.-Head-Change    Column Row Layer    Max.-Flux-Residual            L2-New               L2-Old           Solver-Max-Delh
          0                 1          12            92   77     2       0.8238575811E+02      65   89    1      -0.5907780132E+06      0.1449386376E+07      0.1843914376E+01      0.8238575811E+02
          0                 2          10            92   77     2      -0.2645363627E+02      92   77    2      -0.7931791243E+06      0.8760293362E+06      0.1449386376E+07     -0.2645363627E+02
          0                 3           6            91   77     2       0.6410373165E+01      92   77    2      -0.9813097470E+04      0.1206247150E+05      0.8760293362E+06      0.6410373165E+01
          0                 4           4            91   77     2       0.9257394432E+00      91   77    2       0.5178908224E+03      0.7130019650E+03      0.1206247150E+05      0.9257394432E+00
          0                 5           3            91   77     2       0.1295715514E+00      91   77    2       0.7242397868E+02      0.8482945849E+02      0.7130019650E+03      0.1295715514E+00
          0                 6           2            91   77     2       0.1814013675E-01      91   77    2       0.1013924924E+02      0.1090207769E+02      0.8482945849E+02      0.1814013675E-01
          0                 7           1            91   77     2       0.2538257932E-02      91   77    2       0.1418645211E+01      0.1466834708E+01      0.1090207769E+02      0.2538257932E-02

    ------------------------------------------------
       NWT REQUIRED            7 OUTER ITERATIONS 
       AND A TOTAL OF         38 INNER ITERATIONS.
    ------------------------------------------------

 NO OUTPUT CONTROL FOR STRESS PERIOD   27   TIME STEP    1

 INTERPOLATION FOR HEAD OBS# 1079, ID 2927-27-32   CHANGED BECAUSE AT LEAST ONE
 NEIGHBORING CELL REQUIRED FOR INTERPOLATION IS DRY OR INACTIVE (OBS2BAS7SE)
 
 SOLVING FOR HEAD 
                                                   Max.-Head-Change                        Max.-Flux-Residual
  Residual-Control   Outer-Iter.   Inner-Iter.     Column Row Layer    Max.-Head-Change    Column Row Layer    Max.-Flux-Residual            L2-New               L2-Old           Solver-Max-Delh
          0                 1          11            66  101     3      -0.7464022754E+01      65   89    1      -0.2519151987E+06      0.7545605830E+06      0.1466834708E+01     -0.7464022754E+01
          0                 2          10            22   46     2      -0.3580507102E+01      65   89    1       0.2314795100E+05      0.7681718795E+05      0.7545605830E+06     -0.3580507102E+01
          0                 3           7            22   46     2       0.3154095545E+00      22   46    2       0.1429162986E+04      0.1656057782E+04      0.7681718795E+05      0.3154095545E+00
          0                 4           4            22   46     2       0.1187040331E-02      22   46    2       0.5393276049E+01      0.9443206869E+01      0.1656057782E+04      0.1187040331E-02

    ------------------------------------------------
       NWT REQUIRED            4 OUTER ITERATIONS 
       AND A TOTAL OF         32 INNER ITERATIONS.
    ------------------------------------------------

 NO OUTPUT CONTROL FOR STRESS PERIOD   27   TIME STEP    2
 
 SOLVING FOR HEAD 
                                                   Max.-Head-Change                        Max.-Flux-Residual
  Residual-Control   Outer-Iter.   Inner-Iter.     Column Row Layer    Max.-Head-Change    Column Row Layer    Max.-Flux-Residual            L2-New               L2-Old           Solver-Max-Delh
          0                 1          11            22   46     2      -0.3976772606E+01      65   89    1      -0.1245686722E+06      0.5778221771E+06      0.9443206869E+01     -0.3976772606E+01
          0                 2          10            73   14     1      -0.1907463760E+01      70   19    2       0.3808534580E+05      0.7074891268E+05      0.5778221771E+06     -0.1907463760E+01
          0                 3           6            73   14     1       0.1663902668E+00      73   14    1       0.1308696701E+04      0.1363144405E+04      0.7074891268E+05      0.1663902668E+00
          0                 4           3            73   14     1       0.6063938760E-03      73   14    1       0.4609859355E+01      0.4739760324E+01      0.1363144405E+04      0.6063938760E-03

    ------------------------------------------------
       NWT REQUIRED            4 OUTER ITERATIONS 
       AND A TOTAL OF         30 INNER ITERATIONS.
    ------------------------------------------------

 NO OUTPUT CONTROL FOR STRESS PERIOD   27   TIME STEP    3
 
 SOLVING FOR HEAD 
                                                   Max.-Head-Change                        Max.-Flux-Residual
  Residual-Control   Outer-Iter.   Inner-Iter.     Column Row Layer    Max.-Head-Change    Column Row Layer    Max.-Flux-Residual            L2-New               L2-Old           Solver-Max-Delh
          0                 1          11            23   46     2      -0.2620430550E+01      65   89    1      -0.7227351637E+05      0.5062663016E+06      0.4739760324E+01     -0.2620430550E+01
          0                 2          10            67  102     1      -0.9287618262E+00      88   65    1      -0.7189491021E+04      0.5116146900E+05      0.5062663016E+06     -0.9287618262E+00
          0                 3           6            67  102     1       0.7181139837E-01      21   20    1       0.5260911603E+03      0.7369833918E+03      0.5116146900E+05      0.7181139837E-01
          0                 4           3            67  102     1       0.9785864958E-03      67  102    1       0.2002835684E+01      0.2108778850E+01      0.7369833918E+03      0.9785864958E-03

    ------------------------------------------------
       NWT REQUIRED            4 OUTER ITERATIONS 
       AND A TOTAL OF         30 INNER ITERATIONS.
    ------------------------------------------------

 NO OUTPUT CONTROL FOR STRESS PERIOD   27   TIME STEP    4

 INTERPOLATION FOR HEAD OBS# 8181, ID 3055-27-126  CHANGED BECAUSE AT LEAST ONE
 NEIGHBORING CELL REQUIRED FOR INTERPOLATION IS DRY OR INACTIVE (OBS2BAS7SE)
 
 SOLVING FOR HEAD 
                                                   Max.-Head-Change                        Max.-Flux-Residual
  Residual-Control   Outer-Iter.   Inner-Iter.     Column Row Layer    Max.-Head-Change    Column Row Layer    Max.-Flux-Residual            L2-New               L2-Old           Solver-Max-Delh
          0                 1          11            23   46     2      -0.2076550212E+01      88   65    1       0.6976365875E+05      0.4690959543E+06      0.2108778850E+01     -0.2076550212E+01
          0                 2          10            18   32     2      -0.4995641594E+00      88   65    1      -0.6997607678E+04      0.4799523483E+05      0.4690959543E+06     -0.4995641594E+00
          0                 3           6            18   32     2       0.4759467762E-01      18   32    2       0.4861312772E+03      0.5696541001E+03      0.4799523483E+05      0.4759467762E-01
          0                 4           3            18   32     2       0.9670510931E-04      90   52    1      -0.4543982379E+01      0.5244868369E+01      0.5696541001E+03      0.9670510931E-04

    ------------------------------------------------
       NWT REQUIRED            4 OUTER ITERATIONS 
       AND A TOTAL OF         30 INNER ITERATIONS.
    ------------------------------------------------

 NO OUTPUT CONTROL FOR STRESS PERIOD   27   TIME STEP    5
 
 SOLVING FOR HEAD 
                                                   Max.-Head-Change                        Max.-Flux-Residual
  Residual-Control   Outer-Iter.   Inner-Iter.     Column Row Layer    Max.-Head-Change    Column Row Layer    Max.-Flux-Residual            L2-New               L2-Old           Solver-Max-Delh
          0                 1          11            88   65     1       0.1761290960E+01      88   65    1       0.6788322655E+05      0.4454943731E+06      0.5244868369E+01      0.1761290960E+01
          0                 2          10            21   42     2      -0.7808682933E+00      87   66    1      -0.3088505385E+05      0.5457307952E+05      0.4454943731E+06     -0.7808682933E+00
          0                 3           6            21   42     2       0.6374077023E-01      25   24    1       0.4282344897E+03      0.5797071009E+03      0.5457307952E+05      0.6374077023E-01
          0                 4           4            21   42     2       0.6133615352E-03      57   77    1      -0.1289613055E+02      0.1307283080E+02      0.5797071009E+03      0.6133615352E-03

    ------------------------------------------------
       NWT REQUIRED            4 OUTER ITERATIONS 
       AND A TOTAL OF         31 INNER ITERATIONS.
    ------------------------------------------------

 NO OUTPUT CONTROL FOR STRESS PERIOD   27   TIME STEP    6
 
 SOLVING FOR HEAD 
                                                   Max.-Head-Change                        Max.-Flux-Residual
  Residual-Control   Outer-Iter.   Inner-Iter.     Column Row Layer    Max.-Head-Change    Column Row Layer    Max.-Flux-Residual            L2-New               L2-Old           Solver-Max-Delh
          0                 1          11            21   42     2      -0.4769658597E+01      88   65    1       0.6604259435E+05      0.4288716143E+06      0.1307283080E+02     -0.4769658597E+01
          0                 2          10            26   83     2      -0.4006243623E+00      88   65    1      -0.6622532316E+04      0.4389989088E+05      0.4288716143E+06     -0.4006243623E+00
          0                 3           6            57   77     1       0.2263053157E-01      57   77    1       0.3464793520E+03      0.3622649539E+03      0.4389989088E+05      0.2263053157E-01
          0                 4           3            26   83     2       0.7136855804E-03      24   48    2      -0.8670452442E+00      0.1464258449E+01      0.3622649539E+03      0.7136855804E-03

    ------------------------------------------------
       NWT REQUIRED            4 OUTER ITERATIONS 
       AND A TOTAL OF         30 INNER ITERATIONS.
    ------------------------------------------------

 NO OUTPUT CONTROL FOR STRESS PERIOD   27   TIME STEP    7
 
 SOLVING FOR HEAD 
                                                   Max.-Head-Change                        Max.-Flux-Residual
  Residual-Control   Outer-Iter.   Inner-Iter.     Column Row Layer    Max.-Head-Change    Column Row Layer    Max.-Flux-Residual            L2-New               L2-Old           Solver-Max-Delh
          0                 1          11            88   65     1       0.1666713631E+01      88   65    1       0.6424779734E+05      0.4164538942E+06      0.1464258449E+01      0.1666713631E+01
          0                 2          10            87   65     2       0.6572666087E+01      87   65    2       0.1276591709E+05      0.4412874280E+05      0.4164538942E+06      0.6572666087E+01
          0                 3           6            87   65     2      -0.5975156504E+00      87   65    2      -0.1276591733E+04      0.1467431892E+04      0.4412874280E+05     -0.5975156504E+00
          0                 4           3            16   27     2       0.1118036759E-03      16   27    2       0.1039709177E+01      0.1494698017E+01      0.1467431892E+04      0.1118036759E-03

    ------------------------------------------------
       NWT REQUIRED            4 OUTER ITERATIONS 
       AND A TOTAL OF         30 INNER ITERATIONS.
    ------------------------------------------------

 NO OUTPUT CONTROL FOR STRESS PERIOD   27   TIME STEP    8
 
 SOLVING FOR HEAD 
                                                   Max.-Head-Change                        Max.-Flux-Residual
  Residual-Control   Outer-Iter.   Inner-Iter.     Column Row Layer    Max.-Head-Change    Column Row Layer    Max.-Flux-Residual            L2-New               L2-Old           Solver-Max-Delh
          0                 1          11            87   65     2       0.4610717439E+01      88   65    1       0.6327137219E+05      0.4066986178E+06      0.1494698017E+01      0.4610717439E+01
          0                 2          10            64   39     2      -0.2034874289E+01      70   19    1      -0.1461318357E+05      0.4552609381E+05      0.4066986178E+06     -0.2034874289E+01
          0                 3           6            70   19     1       0.1698520118E+00      90   67    2      -0.1429090564E+04      0.2042245511E+04      0.4552609381E+05      0.1698520118E+00
          0                 4           2            64   39     2       0.4193645749E-02      70   19    1       0.5094530407E+01      0.5777165232E+01      0.2042245511E+04      0.4193645749E-02

    ------------------------------------------------
       NWT REQUIRED            4 OUTER ITERATIONS 
       AND A TOTAL OF         29 INNER ITERATIONS.
    ------------------------------------------------

 NO OUTPUT CONTROL FOR STRESS PERIOD   27   TIME STEP    9
 
 SOLVING FOR HEAD 
                                                   Max.-Head-Change                        Max.-Flux-Residual
  Residual-Control   Outer-Iter.   Inner-Iter.     Column Row Layer    Max.-Head-Change    Column Row Layer    Max.-Flux-Residual            L2-New               L2-Old           Solver-Max-Delh
          0                 1          11            70   19     1      -0.2146682735E+01      88   65    1       0.6205559993E+05      0.3995467078E+06      0.5777165232E+01     -0.2146682735E+01
          0                 2          10            78   59     1      -0.6233311840E+00      17    8    2       0.8459748917E+04      0.4140244479E+05      0.3995467078E+06     -0.6233311840E+00
          0                 3           6            78   59     1       0.5365879394E-01      28   31    1       0.3766810728E+03      0.4568638218E+03      0.4140244479E+05      0.5365879394E-01
          0                 4           3            78   59     1       0.2574438032E-03      78   59    1       0.9999063164E+00      0.1176339115E+01      0.4568638218E+03      0.2574438032E-03

    ------------------------------------------------
       NWT REQUIRED            4 OUTER ITERATIONS 
       AND A TOTAL OF         30 INNER ITERATIONS.
    ------------------------------------------------

 NO OUTPUT CONTROL FOR STRESS PERIOD   27   TIME STEP   10
 
 SOLVING FOR HEAD 
                                                   Max.-Head-Change                        Max.-Flux-Residual
  Residual-Control   Outer-Iter.   Inner-Iter.     Column Row Layer    Max.-Head-Change    Column Row Layer    Max.-Flux-Residual            L2-New               L2-Old           Solver-Max-Delh
          0                 1          11            88   65     1       0.1569320485E+01      88   65    1       0.6045412332E+05      0.3932428037E+06      0.1176339115E+01      0.1569320485E+01
          0                 2          10            88   65     1      -0.1429304477E+00      88   65    1      -0.6058752482E+04      0.3969064843E+05      0.3932428037E+06     -0.1429304477E+00
          0                 3           5            24   12     1       0.1664419109E-02      24   12    2      -0.4796779363E+02      0.7212199007E+02      0.3969064843E+05      0.1664419109E-02

    ------------------------------------------------
       NWT REQUIRED            3 OUTER ITERATIONS 
       AND A TOTAL OF         26 INNER ITERATIONS.
    ------------------------------------------------

 NO OUTPUT CONTROL FOR STRESS PERIOD   27   TIME STEP   11
 
 SOLVING FOR HEAD 
                                                   Max.-Head-Change                        Max.-Flux-Residual
  Residual-Control   Outer-Iter.   Inner-Iter.     Column Row Layer    Max.-Head-Change    Column Row Layer    Max.-Flux-Residual            L2-New               L2-Old           Solver-Max-Delh
          0                 1          11            88   65     1       0.1527679277E+01      88   65    1       0.5885221357E+05      0.3870958380E+06      0.7212199007E+02      0.1527679277E+01
          0                 2          10            67  101     1      -0.7573836403E+00      88   65    1      -0.5897572650E+04      0.3884588352E+05      0.3870958380E+06     -0.7573836403E+00
          0                 3           6            67  101     1       0.5903257038E-01      35   32    1      -0.1017263790E+04      0.1031571663E+04      0.3884588352E+05      0.5903257038E-01
          0                 4           3            35   32     1      -0.2661526128E-02      35   32    1      -0.9156620868E+02      0.9159671003E+02      0.1031571663E+04     -0.2661526128E-02

    ------------------------------------------------
       NWT REQUIRED            4 OUTER ITERATIONS 
       AND A TOTAL OF         30 INNER ITERATIONS.
    ------------------------------------------------

 OUTPUT CONTROL FOR STRESS PERIOD   27   TIME STEP   12
    SAVE BUDGET
 UBDSV1 SAVING "         STORAGE" ON UNIT  39 AT TIME STEP 12, STRESS PERIOD  27
 UBDSV2 SAVING "   CONSTANT HEAD" ON UNIT  39 AT TIME STEP 12, STRESS PERIOD  27
 UBDSV1 SAVING "FLOW RIGHT FACE " ON UNIT  39 AT TIME STEP 12, STRESS PERIOD  27
 UBDSV1 SAVING "FLOW FRONT FACE " ON UNIT  39 AT TIME STEP 12, STRESS PERIOD  27
 UBDSV1 SAVING "FLOW LOWER FACE " ON UNIT  39 AT TIME STEP 12, STRESS PERIOD  27
 UBDSV4 SAVING "           WELLS" ON UNIT  39 AT TIME STEP 12, STRESS PERIOD  27
 UBDSV3 SAVING "              ET" ON UNIT  39 AT TIME STEP 12, STRESS PERIOD  27
 UBDSV3 SAVING "        RECHARGE" ON UNIT  39 AT TIME STEP 12, STRESS PERIOD  27
1
  VOLUMETRIC BUDGET FOR ENTIRE MODEL AT END OF TIME STEP   12, STRESS PERIOD  27
  ------------------------------------------------------------------------------

     CUMULATIVE VOLUMES      L**3       RATES FOR THIS TIME STEP      L**3/T
     ------------------                 ------------------------

           IN:                                      IN:
           ---                                      ---
             STORAGE     =155020541952.0000               STORAGE     =    15723904.0000
       CONSTANT HEAD     = 13016662016.0000         CONSTANT HEAD     =     1466385.7500
               WELLS     = 12087257088.0000                 WELLS     =     1225642.0000
                  ET     =           0.0000                    ET     =           0.0000
            RECHARGE     =157379428352.0000              RECHARGE     =    25244566.0000

                TOTAL IN =337503911936.0000                  TOTAL IN =    43660496.0000

          OUT:                                     OUT:
          ----                                     ----
             STORAGE     = 19123544064.0000               STORAGE     =     4291234.0000
       CONSTANT HEAD     = 35693895680.0000         CONSTANT HEAD     =     3616287.5000
               WELLS     =272945577984.0000                 WELLS     =    34517492.0000
                  ET     =  9740689408.0000                    ET     =     1235496.7500
            RECHARGE     =           0.0000              RECHARGE     =           0.0000

               TOTAL OUT =337503715328.0000                 TOTAL OUT =    43660508.0000

                IN - OUT =      196608.0000                  IN - OUT =         -12.0000

     PERCENT DISCREPANCY =           0.00         PERCENT DISCREPANCY =          -0.00






         TIME SUMMARY AT END OF TIME STEP   12 IN STRESS PERIOD   27
                    SECONDS     MINUTES      HOURS       DAYS        YEARS
                    -----------------------------------------------------------
   TIME STEP LENGTH 2.62800E+06  43800.      730.00      30.417     8.32763E-02
 STRESS PERIOD TIME 3.15360E+07 5.25600E+05  8760.0      365.00     0.99932    
         TOTAL TIME 8.52077E+08 1.42013E+07 2.36688E+05  9862.0      27.001    
1
1
                            STRESS PERIOD NO.   28, LENGTH =   365.0000    
                            -----------------------------------------------

                              NUMBER OF TIME STEPS =    12

                               MULTIPLIER FOR DELT =     1.000

                            INITIAL TIME STEP SIZE =   30.41667    

   1494 WELLS

 REUSING SURF FROM LAST STRESS PERIOD

 REUSING EVTR FROM LAST STRESS PERIOD

 REUSING EXDP FROM LAST STRESS PERIOD



                           RECHARGE
 READING ON UNIT   16 WITH FORMAT: (15F5.0)            


     63 TIME-VARIANT SPECIFIED-HEAD CELLS
 
 SOLVING FOR HEAD 
                                                   Max.-Head-Change                        Max.-Flux-Residual
  Residual-Control   Outer-Iter.   Inner-Iter.     Column Row Layer    Max.-Head-Change    Column Row Layer    Max.-Flux-Residual            L2-New               L2-Old           Solver-Max-Delh
          0                 1          11            65    2     2       0.1228304988E+03      65   89    1       0.5397280316E+06      0.1368770155E+07      0.9159671003E+02      0.1228304988E+03
          0                 2          10            65    5     2      -0.2976597954E+02      65    5    2      -0.7994979129E+06      0.1352521453E+07      0.1368770155E+07     -0.2976597954E+02
          0                 3           8            66    5     2       0.4875342575E+01      66   25    2       0.1809988072E+05      0.2302493623E+05      0.1352521453E+07      0.4875342575E+01
          0                 4           4            66    5     2       0.7505961147E+00      66   25    2       0.1626727197E+04      0.1806077544E+04      0.2302493623E+05      0.7505961147E+00
          0                 5           3            66    5     2       0.1128768837E+00      66   25    2       0.1462246016E+03      0.1696727684E+03      0.1806077544E+04      0.1128768837E+00
          0                 6           2            66    5     2       0.1696433623E-01      66   25    2       0.1313082752E+02      0.1676332930E+02      0.1696727684E+03      0.1696433623E-01
          0                 7           2            66    5     2       0.2547977152E-02      66   25    2       0.1177837618E+01      0.1812201542E+01      0.1676332930E+02      0.2547977152E-02

    ------------------------------------------------
       NWT REQUIRED            7 OUTER ITERATIONS 
       AND A TOTAL OF         40 INNER ITERATIONS.
    ------------------------------------------------

 NO OUTPUT CONTROL FOR STRESS PERIOD   28   TIME STEP    1
 
 SOLVING FOR HEAD 
                                                   Max.-Head-Change                        Max.-Flux-Residual
  Residual-Control   Outer-Iter.   Inner-Iter.     Column Row Layer    Max.-Head-Change    Column Row Layer    Max.-Flux-Residual            L2-New               L2-Old           Solver-Max-Delh
          0                 1          11            60   87     2      -0.7369821912E+01      60   87    2      -0.2504785147E+06      0.8342030786E+06      0.1812201542E+01     -0.7369821912E+01
          0                 2          10            23   48     2      -0.2316390679E+01      66   25    2       0.2645581998E+05      0.8945823973E+05      0.8342030786E+06     -0.2316390679E+01
          0                 3           6            23   48     2       0.2039495112E+00      66   25    2      -0.2633487495E+04      0.3041101802E+04      0.8945823973E+05      0.2039495112E+00
          0                 4           4            23   48     2       0.6347195875E-03      23   48    2       0.3393989541E+01      0.4089455164E+01      0.3041101802E+04      0.6347195875E-03

    ------------------------------------------------
       NWT REQUIRED            4 OUTER ITERATIONS 
       AND A TOTAL OF         31 INNER ITERATIONS.
    ------------------------------------------------

 NO OUTPUT CONTROL FOR STRESS PERIOD   28   TIME STEP    2
 
 SOLVING FOR HEAD 
                                                   Max.-Head-Change                        Max.-Flux-Residual
  Residual-Control   Outer-Iter.   Inner-Iter.     Column Row Layer    Max.-Head-Change    Column Row Layer    Max.-Flux-Residual            L2-New               L2-Old           Solver-Max-Delh
          0                 1          11            60   87     2      -0.5637084070E+01      60   87    2      -0.1854563854E+06      0.7017714596E+06      0.4089455164E+01     -0.5637084070E+01
          0                 2          10            66  101     2       0.9323442582E+00      60   87    2       0.1790574113E+05      0.7153589415E+05      0.7017714596E+06      0.9323442582E+00
          0                 3           6            66  101     2      -0.8476609237E-01      66  101    2      -0.5964499321E+03      0.6982578214E+03      0.7153589415E+05     -0.8476609237E-01
          0                 4           3            91   77     2      -0.1118329884E-03      23   13    1       0.1648830175E+00      0.3490684868E+00      0.6982578214E+03     -0.1118329884E-03

    ------------------------------------------------
       NWT REQUIRED            4 OUTER ITERATIONS 
       AND A TOTAL OF         30 INNER ITERATIONS.
    ------------------------------------------------

 NO OUTPUT CONTROL FOR STRESS PERIOD   28   TIME STEP    3
 
 SOLVING FOR HEAD 
                                                   Max.-Head-Change                        Max.-Flux-Residual
  Residual-Control   Outer-Iter.   Inner-Iter.     Column Row Layer    Max.-Head-Change    Column Row Layer    Max.-Flux-Residual            L2-New               L2-Old           Solver-Max-Delh
          0                 1          11            72   15     1       0.4492073999E+01      60   87    2      -0.1416973382E+06      0.6411040307E+06      0.3490684868E+00      0.4492073999E+01
          0                 2          10            55   81     3       0.2071458880E+01      66   20    1      -0.2394764872E+05      0.7218375893E+05      0.6411040307E+06      0.2071458880E+01
          0                 3           6            55   81     3      -0.1883120551E+00      70   19    2      -0.1634104078E+04      0.2135268446E+04      0.7218375893E+05     -0.1883120551E+00
          0                 4           2            68  104     1       0.2778507757E-03      68  104    1       0.7189188451E+00      0.8006333306E+00      0.2135268446E+04      0.2778507757E-03

    ------------------------------------------------
       NWT REQUIRED            4 OUTER ITERATIONS 
       AND A TOTAL OF         29 INNER ITERATIONS.
    ------------------------------------------------

 NO OUTPUT CONTROL FOR STRESS PERIOD   28   TIME STEP    4
 
 SOLVING FOR HEAD 
                                                   Max.-Head-Change                        Max.-Flux-Residual
  Residual-Control   Outer-Iter.   Inner-Iter.     Column Row Layer    Max.-Head-Change    Column Row Layer    Max.-Flux-Residual            L2-New               L2-Old           Solver-Max-Delh
          0                 1          11            70   19     2       0.7556771811E+01      72   15    1       0.1121976576E+06      0.6051882453E+06      0.8006333306E+00      0.7556771811E+01
          0                 2          10            18   36     2      -0.1278954224E+01      70   19    2      -0.1208249775E+05      0.6256759524E+05      0.6051882453E+06     -0.1278954224E+01
          0                 3           7            18   36     2       0.1126743916E+00      18   36    2       0.7622076873E+03      0.9775521437E+03      0.6256759524E+05      0.1126743916E+00
          0                 4           4            18   36     2       0.3246151610E-03      18   36    2       0.2100410117E+01      0.3405286207E+01      0.9775521437E+03      0.3246151610E-03

    ------------------------------------------------
       NWT REQUIRED            4 OUTER ITERATIONS 
       AND A TOTAL OF         32 INNER ITERATIONS.
    ------------------------------------------------

 NO OUTPUT CONTROL FOR STRESS PERIOD   28   TIME STEP    5
 
 SOLVING FOR HEAD 
                                                   Max.-Head-Change                        Max.-Flux-Residual
  Residual-Control   Outer-Iter.   Inner-Iter.     Column Row Layer    Max.-Head-Change    Column Row Layer    Max.-Flux-Residual            L2-New               L2-Old           Solver-Max-Delh
          0                 1          11            70   19     1       0.3940502572E+01      70   19    1       0.1165787887E+06      0.5842987051E+06      0.3405286207E+01      0.3940502572E+01
          0                 2          10            18   34     2       0.4830992675E+00      66   23    1      -0.1504020322E+05      0.6205520905E+05      0.5842987051E+06      0.4830992675E+00
          0                 3           6            66   23     2       0.6555367852E-01      66   23    2       0.4475052565E+04      0.4481605155E+04      0.6205520905E+05      0.6555367852E-01
          0                 4           3            66   23     2       0.5898493786E-02      66   23    2       0.4026356998E+03      0.4026714490E+03      0.4481605155E+04      0.5898493786E-02

    ------------------------------------------------
       NWT REQUIRED            4 OUTER ITERATIONS 
       AND A TOTAL OF         30 INNER ITERATIONS.
    ------------------------------------------------

 NO OUTPUT CONTROL FOR STRESS PERIOD   28   TIME STEP    6
 
 SOLVING FOR HEAD 
                                                   Max.-Head-Change                        Max.-Flux-Residual
  Residual-Control   Outer-Iter.   Inner-Iter.     Column Row Layer    Max.-Head-Change    Column Row Layer    Max.-Flux-Residual            L2-New               L2-Old           Solver-Max-Delh
          0                 1          11            72   15     1       0.3643043449E+01      70   19    1       0.1066492762E+06      0.5648182094E+06      0.4026714490E+03      0.3643043449E+01
          0                 2          10            73   14     2       0.2899087117E+01      73   14    2       0.2964448721E+05      0.6858728266E+05      0.5648182094E+06      0.2899087117E+01
          0                 3           6            73   14     2      -0.2634038369E+00      73   14    2      -0.2948120620E+04      0.3346830880E+04      0.6858728266E+05     -0.2634038369E+00
          0                 4           4            23   47     2       0.2684064489E-03      23   47    2       0.1089637291E+01      0.1466357647E+01      0.3346830880E+04      0.2684064489E-03

    ------------------------------------------------
       NWT REQUIRED            4 OUTER ITERATIONS 
       AND A TOTAL OF         31 INNER ITERATIONS.
    ------------------------------------------------

 NO OUTPUT CONTROL FOR STRESS PERIOD   28   TIME STEP    7
 
 SOLVING FOR HEAD 
                                                   Max.-Head-Change                        Max.-Flux-Residual
  Residual-Control   Outer-Iter.   Inner-Iter.     Column Row Layer    Max.-Head-Change    Column Row Layer    Max.-Flux-Residual            L2-New               L2-Old           Solver-Max-Delh
          0                 1          11            73   14     2       0.4064142378E+01      70   19    1       0.9769323029E+05      0.5506489548E+06      0.1466357647E+01      0.4064142378E+01
          0                 2          10            73   14     2      -0.3708574546E+00      70   19    1      -0.9835094280E+04      0.5624450913E+05      0.5506489548E+06     -0.3708574546E+00
          0                 3           6            25   26     1       0.1544451063E-01      25   26    1       0.5119667491E+03      0.8774149264E+03      0.5624450913E+05      0.1544451063E-01
          0                 4           3            91   77     2      -0.8515415289E-04      25   26    1       0.4270997047E+00      0.5864981176E+00      0.8774149264E+03     -0.8515415289E-04

    ------------------------------------------------
       NWT REQUIRED            4 OUTER ITERATIONS 
       AND A TOTAL OF         30 INNER ITERATIONS.
    ------------------------------------------------

 NO OUTPUT CONTROL FOR STRESS PERIOD   28   TIME STEP    8
 
 SOLVING FOR HEAD 
                                                   Max.-Head-Change                        Max.-Flux-Residual
  Residual-Control   Outer-Iter.   Inner-Iter.     Column Row Layer    Max.-Head-Change    Column Row Layer    Max.-Flux-Residual            L2-New               L2-Old           Solver-Max-Delh
          0                 1          11            72   15     1       0.3223822313E+01      70   19    1       0.8972717210E+05      0.5401335399E+06      0.5864981176E+00      0.3223822313E+01
          0                 2          10            72   15     1      -0.2942231729E+00      70   19    1      -0.9023929532E+04      0.5509493792E+05      0.5401335399E+06     -0.2942231729E+00
          0                 3           6            66   19     1      -0.3120676328E-01      17    5    1       0.2871302245E+03      0.4793022854E+03      0.5509493792E+05     -0.3120676328E-01
          0                 4           3            66   19     1      -0.1252847076E-03      66   19    1      -0.1059573069E+01      0.1329351307E+01      0.4793022854E+03     -0.1252847076E-03

    ------------------------------------------------
       NWT REQUIRED            4 OUTER ITERATIONS 
       AND A TOTAL OF         30 INNER ITERATIONS.
    ------------------------------------------------

 NO OUTPUT CONTROL FOR STRESS PERIOD   28   TIME STEP    9
 
 SOLVING FOR HEAD 
                                                   Max.-Head-Change                        Max.-Flux-Residual
  Residual-Control   Outer-Iter.   Inner-Iter.     Column Row Layer    Max.-Head-Change    Column Row Layer    Max.-Flux-Residual            L2-New               L2-Old           Solver-Max-Delh
          0                 1          11            72   15     1       0.3042249040E+01      70   19    1       0.8264742496E+05      0.5298148986E+06      0.1329351307E+01      0.3042249040E+01
          0                 2          10            18   35     2      -0.1184749319E+01      66   19    1      -0.2163115301E+05      0.6243024687E+05      0.5298148986E+06     -0.1184749319E+01
          0                 3           6            18   35     2       0.1046995125E+00      18   35    2       0.8148746218E+03      0.1544410433E+04      0.6243024687E+05      0.1046995125E+00
          0                 4           4            26   26     1      -0.7792188741E-03      26   26    1      -0.5047122493E+02      0.5225885870E+02      0.1544410433E+04     -0.7792188741E-03

    ------------------------------------------------
       NWT REQUIRED            4 OUTER ITERATIONS 
       AND A TOTAL OF         31 INNER ITERATIONS.
    ------------------------------------------------

 NO OUTPUT CONTROL FOR STRESS PERIOD   28   TIME STEP   10
 
 SOLVING FOR HEAD 
                                                   Max.-Head-Change                        Max.-Flux-Residual
  Residual-Control   Outer-Iter.   Inner-Iter.     Column Row Layer    Max.-Head-Change    Column Row Layer    Max.-Flux-Residual            L2-New               L2-Old           Solver-Max-Delh
          0                 1          11            72   15     1       0.2878883979E+01      70   19    1       0.7639670611E+05      0.5208148706E+06      0.5225885870E+02      0.2878883979E+01
          0                 2          10            66   20     2       0.6149856365E+00      66   20    2       0.1147384236E+05      0.5472043443E+05      0.5208148706E+06      0.6149856365E+00
          0                 3           6            66   20     2      -0.5591288449E-01      66   20    2      -0.1135238692E+04      0.1765886705E+04      0.5472043443E+05     -0.5591288449E-01
          0                 4           3            91   77     2      -0.7343691770E-04      78   48    1      -0.8379730918E+00      0.1361216725E+01      0.1765886705E+04     -0.7343691770E-04

    ------------------------------------------------
       NWT REQUIRED            4 OUTER ITERATIONS 
       AND A TOTAL OF         30 INNER ITERATIONS.
    ------------------------------------------------

 NO OUTPUT CONTROL FOR STRESS PERIOD   28   TIME STEP   11
 
 SOLVING FOR HEAD 
                                                   Max.-Head-Change                        Max.-Flux-Residual
  Residual-Control   Outer-Iter.   Inner-Iter.     Column Row Layer    Max.-Head-Change    Column Row Layer    Max.-Flux-Residual            L2-New               L2-Old           Solver-Max-Delh
          0                 1          11            21   41     2      -0.6678196415E+01      72   15    1       0.7197124696E+05      0.5136424793E+06      0.1361216725E+01     -0.6678196415E+01
          0                 2          10            21   41     2       0.4818650645E+00      72   15    1      -0.7225837186E+04      0.5242476959E+05      0.5136424793E+06      0.4818650645E+00
          0                 3           7            66  105     1       0.2871633067E-01      23   46    3       0.1665390878E+03      0.1862650953E+03      0.5242476959E+05      0.2871633067E-01
          0                 4           3            66  105     1       0.3543358153E-03      68   49    1      -0.1032552749E+01      0.1297266964E+01      0.1862650953E+03      0.3543358153E-03

    ------------------------------------------------
       NWT REQUIRED            4 OUTER ITERATIONS 
       AND A TOTAL OF         31 INNER ITERATIONS.
    ------------------------------------------------

 OUTPUT CONTROL FOR STRESS PERIOD   28   TIME STEP   12
    SAVE BUDGET
 UBDSV1 SAVING "         STORAGE" ON UNIT  39 AT TIME STEP 12, STRESS PERIOD  28
 UBDSV2 SAVING "   CONSTANT HEAD" ON UNIT  39 AT TIME STEP 12, STRESS PERIOD  28
 UBDSV1 SAVING "FLOW RIGHT FACE " ON UNIT  39 AT TIME STEP 12, STRESS PERIOD  28
 UBDSV1 SAVING "FLOW FRONT FACE " ON UNIT  39 AT TIME STEP 12, STRESS PERIOD  28
 UBDSV1 SAVING "FLOW LOWER FACE " ON UNIT  39 AT TIME STEP 12, STRESS PERIOD  28
 UBDSV4 SAVING "           WELLS" ON UNIT  39 AT TIME STEP 12, STRESS PERIOD  28
 UBDSV3 SAVING "              ET" ON UNIT  39 AT TIME STEP 12, STRESS PERIOD  28
 UBDSV3 SAVING "        RECHARGE" ON UNIT  39 AT TIME STEP 12, STRESS PERIOD  28
1
  VOLUMETRIC BUDGET FOR ENTIRE MODEL AT END OF TIME STEP   12, STRESS PERIOD  28
  ------------------------------------------------------------------------------

     CUMULATIVE VOLUMES      L**3       RATES FOR THIS TIME STEP      L**3/T
     ------------------                 ------------------------

           IN:                                      IN:
           ---                                      ---
             STORAGE     =161988722688.0000               STORAGE     =    18331994.0000
       CONSTANT HEAD     = 13557525504.0000         CONSTANT HEAD     =     1514636.0000
               WELLS     = 12534614016.0000                 WELLS     =     1225642.0000
                  ET     =           0.0000                    ET     =           0.0000
            RECHARGE     =167871021056.0000              RECHARGE     =    28743986.0000

                TOTAL IN =355951902720.0000                  TOTAL IN =    49816256.0000

          OUT:                                     OUT:
          ----                                     ----
             STORAGE     = 22000691200.0000               STORAGE     =     7220604.0000
       CONSTANT HEAD     = 37014331392.0000         CONSTANT HEAD     =     3609710.5000
               WELLS     =286811947008.0000                 WELLS     =    37989856.0000
                  ET     = 10124792832.0000                    ET     =      996090.9375
            RECHARGE     =           0.0000              RECHARGE     =           0.0000

               TOTAL OUT =355951771648.0000                 TOTAL OUT =    49816260.0000

                IN - OUT =      131072.0000                  IN - OUT =          -4.0000

     PERCENT DISCREPANCY =           0.00         PERCENT DISCREPANCY =          -0.00






         TIME SUMMARY AT END OF TIME STEP   12 IN STRESS PERIOD   28
                    SECONDS     MINUTES      HOURS       DAYS        YEARS
                    -----------------------------------------------------------
   TIME STEP LENGTH 2.62800E+06  43800.      730.00      30.417     8.32763E-02
 STRESS PERIOD TIME 3.15360E+07 5.25600E+05  8760.0      365.00     0.99932    
         TOTAL TIME 8.83613E+08 1.47269E+07 2.45448E+05  10227.      28.000    
1
1
                            STRESS PERIOD NO.   29, LENGTH =   366.0000    
                            -----------------------------------------------

                              NUMBER OF TIME STEPS =    12

                               MULTIPLIER FOR DELT =     1.000

                            INITIAL TIME STEP SIZE =   30.50000    

   1490 WELLS

 REUSING SURF FROM LAST STRESS PERIOD

 REUSING EVTR FROM LAST STRESS PERIOD

 REUSING EXDP FROM LAST STRESS PERIOD



                           RECHARGE
 READING ON UNIT   16 WITH FORMAT: (15F5.0)            


     63 TIME-VARIANT SPECIFIED-HEAD CELLS
 
 SOLVING FOR HEAD 
                                                   Max.-Head-Change                        Max.-Flux-Residual
  Residual-Control   Outer-Iter.   Inner-Iter.     Column Row Layer    Max.-Head-Change    Column Row Layer    Max.-Flux-Residual            L2-New               L2-Old           Solver-Max-Delh
          0                 1          11            62   94     3      -0.4827034134E+02      32   21    2       0.5194230587E+06      0.1421410967E+07      0.1297266964E+01     -0.4827034134E+02
          0                 2          10            65    2     2      -0.3020944125E+02      59   87    3       0.2007167468E+06      0.2685389002E+06      0.1421410967E+07     -0.3020944125E+02
          0                 3           7            65    2     2       0.9549118924E+00      31   26    2       0.1984153558E+04      0.3265807660E+04      0.2685389002E+06      0.9549118924E+00
          0                 4           5            65    2     2       0.5584679268E-01      65    2    2       0.2485979801E+02      0.3474923557E+02      0.3265807660E+04      0.5584679268E-01
          0                 5           4            65    2     2       0.3262166308E-02      65    2    3       0.2209285490E+01      0.3432587545E+01      0.3474923557E+02      0.3262166308E-02

    ------------------------------------------------
       NWT REQUIRED            5 OUTER ITERATIONS 
       AND A TOTAL OF         37 INNER ITERATIONS.
    ------------------------------------------------

 NO OUTPUT CONTROL FOR STRESS PERIOD   29   TIME STEP    1
 
 SOLVING FOR HEAD 
                                                   Max.-Head-Change                        Max.-Flux-Residual
  Residual-Control   Outer-Iter.   Inner-Iter.     Column Row Layer    Max.-Head-Change    Column Row Layer    Max.-Flux-Residual            L2-New               L2-Old           Solver-Max-Delh
          0                 1          11            65    2     2      -0.8056801145E+02      32   21    2       0.1830241304E+06      0.8551420982E+06      0.3432587545E+01     -0.8056801145E+02
          0                 2          10            66    1     2      -0.5806093101E+02      31   26    2       0.2522063520E+05      0.9789773039E+05      0.8551420982E+06     -0.5806093101E+02
          0                 3           7            66    1     2       0.1577748343E+01      28   22    1      -0.3997753233E+04      0.5166391750E+04      0.9789773039E+05      0.1577748343E+01
          0                 4           5            66    1     2       0.9926069911E-01      28   22    1      -0.3602478630E+03      0.3640423221E+03      0.5166391750E+04      0.9926069911E-01
          0                 5           4            66    1     2       0.6237771533E-02      28   22    1      -0.3238992453E+02      0.3274532945E+02      0.3640423221E+03      0.6237771533E-02

    ------------------------------------------------
       NWT REQUIRED            5 OUTER ITERATIONS 
       AND A TOTAL OF         37 INNER ITERATIONS.
    ------------------------------------------------

 NO OUTPUT CONTROL FOR STRESS PERIOD   29   TIME STEP    2
 
 SOLVING FOR HEAD 
                                                   Max.-Head-Change                        Max.-Flux-Residual
  Residual-Control   Outer-Iter.   Inner-Iter.     Column Row Layer    Max.-Head-Change    Column Row Layer    Max.-Flux-Residual            L2-New               L2-Old           Solver-Max-Delh
          0                 1          11            66    1     2      -0.1764965858E+02      59   87    2      -0.1408791420E+06      0.7127029640E+06      0.3274532945E+02     -0.1764965858E+02
          0                 2          10            28   26     1      -0.5869661367E+00      28   26    1      -0.1791232729E+05      0.7926118215E+05      0.7127029640E+06     -0.5869661367E+00
          0                 3           6            28   26     1       0.5265975503E-01      28   26    1       0.1767577204E+04      0.2881740531E+04      0.7926118215E+05      0.5265975503E-01
          0                 4           3            66    1     2       0.1937374325E-02      59   63    1      -0.2104483068E+01      0.3936444971E+01      0.2881740531E+04      0.1937374325E-02

    ------------------------------------------------
       NWT REQUIRED            4 OUTER ITERATIONS 
       AND A TOTAL OF         30 INNER ITERATIONS.
    ------------------------------------------------

 NO OUTPUT CONTROL FOR STRESS PERIOD   29   TIME STEP    3
 
 SOLVING FOR HEAD 
                                                   Max.-Head-Change                        Max.-Flux-Residual
  Residual-Control   Outer-Iter.   Inner-Iter.     Column Row Layer    Max.-Head-Change    Column Row Layer    Max.-Flux-Residual            L2-New               L2-Old           Solver-Max-Delh
          0                 1          11            59   87     2      -0.5038538818E+01      59   87    2      -0.1193989743E+06      0.6480989084E+06      0.3936444971E+01     -0.5038538818E+01
          0                 2          10            36   32     1      -0.9215468998E+00      59   87    2       0.1140636402E+05      0.6717259525E+05      0.6480989084E+06     -0.9215468998E+00
          0                 3           6            36   32     1       0.9745041666E-01      27   28    1       0.9655232067E+03      0.1552717689E+04      0.6717259525E+05      0.9745041666E-01
          0                 4           3            36   32     1       0.5094055440E-03      36   31    1      -0.9954240270E+01      0.1127253255E+02      0.1552717689E+04      0.5094055440E-03

    ------------------------------------------------
       NWT REQUIRED            4 OUTER ITERATIONS 
       AND A TOTAL OF         30 INNER ITERATIONS.
    ------------------------------------------------

 NO OUTPUT CONTROL FOR STRESS PERIOD   29   TIME STEP    4
 
 SOLVING FOR HEAD 
                                                   Max.-Head-Change                        Max.-Flux-Residual
  Residual-Control   Outer-Iter.   Inner-Iter.     Column Row Layer    Max.-Head-Change    Column Row Layer    Max.-Flux-Residual            L2-New               L2-Old           Solver-Max-Delh
          0                 1          11            59   87     2      -0.4560229705E+01      59   87    2      -0.1051137953E+06      0.6102722321E+06      0.1127253255E+02     -0.4560229705E+01
          0                 2          10            65    6     2      -0.2840043547E+02      65    6    2      -0.1604829665E+05      0.6763790426E+05      0.6102722321E+06     -0.2840043547E+02
          0                 3           6            65    6     2       0.2033737770E+01      65    6    3      -0.1558764543E+04      0.3070499510E+04      0.6763790426E+05      0.2033737770E+01
          0                 4           3            65    6     2       0.7748368866E-01      65    6    2       0.5146286875E+02      0.6172360767E+02      0.3070499510E+04      0.7748368866E-01
          0                 5           2            65    6     2       0.2940848990E-02      65    6    3       0.4209368076E+01      0.5377043199E+01      0.6172360767E+02      0.2940848990E-02

    ------------------------------------------------
       NWT REQUIRED            5 OUTER ITERATIONS 
       AND A TOTAL OF         32 INNER ITERATIONS.
    ------------------------------------------------

 NO OUTPUT CONTROL FOR STRESS PERIOD   29   TIME STEP    5
 
 SOLVING FOR HEAD 
                                                   Max.-Head-Change                        Max.-Flux-Residual
  Residual-Control   Outer-Iter.   Inner-Iter.     Column Row Layer    Max.-Head-Change    Column Row Layer    Max.-Flux-Residual            L2-New               L2-Old           Solver-Max-Delh
          0                 1          11            65    6     2      -0.1163357421E+02      59   87    2      -0.9510427698E+05      0.5832482740E+06      0.5377043199E+01     -0.1163357421E+02
          0                 2          10            65    3     2      -0.2380916151E+02      28   24    2       0.2192949928E+05      0.6636375520E+05      0.5832482740E+06     -0.2380916151E+02
          0                 3           7            65    3     2       0.1376248022E+01      59   87    2       0.4193375444E+04      0.6032201996E+04      0.6636375520E+05      0.1376248022E+01
          0                 4           5            65    3     2       0.7028438297E-01      24   14    1      -0.2684418162E+03      0.3203582512E+03      0.6032201996E+04      0.7028438297E-01
          0                 5           4            65    3     2       0.3578236717E-02      24   14    1      -0.2413474783E+02      0.2836238710E+02      0.3203582512E+03      0.3578236717E-02

    ------------------------------------------------
       NWT REQUIRED            5 OUTER ITERATIONS 
       AND A TOTAL OF         37 INNER ITERATIONS.
    ------------------------------------------------

 NO OUTPUT CONTROL FOR STRESS PERIOD   29   TIME STEP    6
 
 SOLVING FOR HEAD 
                                                   Max.-Head-Change                        Max.-Flux-Residual
  Residual-Control   Outer-Iter.   Inner-Iter.     Column Row Layer    Max.-Head-Change    Column Row Layer    Max.-Flux-Residual            L2-New               L2-Old           Solver-Max-Delh
          0                 1          11            59   87     2      -0.1338232993E+02      59   87    3      -0.7498927644E+05      0.5625157029E+06      0.2836238710E+02     -0.1338232993E+02
          0                 2          10            92   77     2      -0.1971997045E+02      16    3    2       0.7651683380E+04      0.5813077807E+05      0.5625157029E+06     -0.1971997045E+02
          0                 3           6            65    5     2       0.3600752146E+00      16    3    1      -0.3648309627E+04      0.3858263265E+04      0.5813077807E+05      0.3600752146E+00
          0                 4           4            65    5     2       0.1739479172E-01      16    3    1      -0.3286748680E+03      0.3289169185E+03      0.3858263265E+04      0.1739479172E-01
          0                 5           3            92   77     2       0.1171438360E-02      16    3    1      -0.2955052862E+02      0.2956561127E+02      0.3289169185E+03      0.1171438360E-02

    ------------------------------------------------
       NWT REQUIRED            5 OUTER ITERATIONS 
       AND A TOTAL OF         34 INNER ITERATIONS.
    ------------------------------------------------

 NO OUTPUT CONTROL FOR STRESS PERIOD   29   TIME STEP    7
 
 SOLVING FOR HEAD 
                                                   Max.-Head-Change                        Max.-Flux-Residual
  Residual-Control   Outer-Iter.   Inner-Iter.     Column Row Layer    Max.-Head-Change    Column Row Layer    Max.-Flux-Residual            L2-New               L2-Old           Solver-Max-Delh
          0                 1          11            92   77     2      -0.5246788356E+02      59   87    3      -0.1083177394E+06      0.5515036862E+06      0.2956561127E+02     -0.5246788356E+02
          0                 2          10            92   77     2       0.1000074758E+02      32   28    2       0.1527089792E+05      0.6268183854E+05      0.5515036862E+06      0.1000074758E+02
          0                 3           7            92   77     2       0.3858257039E+00      60   82    1      -0.3748882158E+04      0.5262903655E+04      0.6268183854E+05      0.3858257039E+00
          0                 4           5            92   77     2       0.1457939185E-01      60   82    1      -0.3378194021E+03      0.4569145462E+03      0.5262903655E+04      0.1457939185E-01
          0                 5           4            60   82     1      -0.5717474389E-03      60   82    1      -0.3037337761E+02      0.4106993814E+02      0.4569145462E+03     -0.5717474389E-03

    ------------------------------------------------
       NWT REQUIRED            5 OUTER ITERATIONS 
       AND A TOTAL OF         37 INNER ITERATIONS.
    ------------------------------------------------

 NO OUTPUT CONTROL FOR STRESS PERIOD   29   TIME STEP    8
 
 SOLVING FOR HEAD 
                                                   Max.-Head-Change                        Max.-Flux-Residual
  Residual-Control   Outer-Iter.   Inner-Iter.     Column Row Layer    Max.-Head-Change    Column Row Layer    Max.-Flux-Residual            L2-New               L2-Old           Solver-Max-Delh
          0                 1          11            59   87     3      -0.3757114776E+01      59   87    3      -0.9123246591E+05      0.5378994154E+06      0.4106993814E+02     -0.3757114776E+01
          0                 2          10            69   21     1      -0.2195429081E+01      59   86    3       0.4500348383E+05      0.7273915845E+05      0.5378994154E+06     -0.2195429081E+01
          0                 3           7            69   21     1       0.1875296761E+00      23   11    1      -0.2800142417E+04      0.3333652650E+04      0.7273915845E+05      0.1875296761E+00
          0                 4           5            23   11     1      -0.4374631423E-02      23   11    1      -0.2521934978E+03      0.2522759481E+03      0.3333652650E+04     -0.4374631423E-02

    ------------------------------------------------
       NWT REQUIRED            4 OUTER ITERATIONS 
       AND A TOTAL OF         33 INNER ITERATIONS.
    ------------------------------------------------

 NO OUTPUT CONTROL FOR STRESS PERIOD   29   TIME STEP    9
 
 SOLVING FOR HEAD 
                                                   Max.-Head-Change                        Max.-Flux-Residual
  Residual-Control   Outer-Iter.   Inner-Iter.     Column Row Layer    Max.-Head-Change    Column Row Layer    Max.-Flux-Residual            L2-New               L2-Old           Solver-Max-Delh
          0                 1          11            69   21     1      -0.3897535750E+01      59   87    3      -0.7658417592E+05      0.5257653329E+06      0.2522759481E+03     -0.3897535750E+01
          0                 2          10            28   23     1      -0.3368235555E+00      28   23    1      -0.1458511207E+05      0.5592115209E+05      0.5257653329E+06     -0.3368235555E+00
          0                 3           7            18   10     1      -0.3425501990E-01      18   10    1      -0.3157440560E+04      0.3626649141E+04      0.5592115209E+05     -0.3425501990E-01
          0                 4           5            18   10     1      -0.3085065289E-02      18   10    1      -0.2843100799E+03      0.2845368977E+03      0.3626649141E+04     -0.3085065289E-02

    ------------------------------------------------
       NWT REQUIRED            4 OUTER ITERATIONS 
       AND A TOTAL OF         33 INNER ITERATIONS.
    ------------------------------------------------

 NO OUTPUT CONTROL FOR STRESS PERIOD   29   TIME STEP   10
 
 SOLVING FOR HEAD 
                                                   Max.-Head-Change                        Max.-Flux-Residual
  Residual-Control   Outer-Iter.   Inner-Iter.     Column Row Layer    Max.-Head-Change    Column Row Layer    Max.-Flux-Residual            L2-New               L2-Old           Solver-Max-Delh
          0                 1          11            59   87     2      -0.2774707111E+01      59   87    3      -0.6496661913E+05      0.5172100404E+06      0.2845368977E+03     -0.2774707111E+01
          0                 2          10            23   46     2      -0.2518549604E+01      34   26    2       0.1658516604E+05      0.5753228806E+05      0.5172100404E+06     -0.2518549604E+01
          0                 3           6            23   46     2       0.2139475490E+00      18   10    1       0.7892083866E+03      0.1241336587E+04      0.5753228806E+05      0.2139475490E+00
          0                 4           4            23   46     2       0.1210390574E-02      23   46    2       0.3446058390E+01      0.4171742002E+01      0.1241336587E+04      0.1210390574E-02

    ------------------------------------------------
       NWT REQUIRED            4 OUTER ITERATIONS 
       AND A TOTAL OF         31 INNER ITERATIONS.
    ------------------------------------------------

 NO OUTPUT CONTROL FOR STRESS PERIOD   29   TIME STEP   11
 
 SOLVING FOR HEAD 
                                                   Max.-Head-Change                        Max.-Flux-Residual
  Residual-Control   Outer-Iter.   Inner-Iter.     Column Row Layer    Max.-Head-Change    Column Row Layer    Max.-Flux-Residual            L2-New               L2-Old           Solver-Max-Delh
          0                 1          11            59   87     2      -0.2542256657E+01      59   87    3      -0.5693546661E+05      0.5090660821E+06      0.4171742002E+01     -0.2542256657E+01
          0                 2          10            22   44     2      -0.8934325682E+00      73   14    2       0.1321189927E+05      0.5729750403E+05      0.5090660821E+06     -0.8934325682E+00
          0                 3           7            22   44     2       0.7509258041E-01      27   21    1      -0.5273012935E+04      0.5853080793E+04      0.5729750403E+05      0.7509258041E-01
          0                 4           6            27   21     1      -0.4996758551E-02      27   21    1      -0.4752229537E+03      0.5083507683E+03      0.5853080793E+04     -0.4996758551E-02

    ------------------------------------------------
       NWT REQUIRED            4 OUTER ITERATIONS 
       AND A TOTAL OF         34 INNER ITERATIONS.
    ------------------------------------------------

 OUTPUT CONTROL FOR STRESS PERIOD   29   TIME STEP   12
    SAVE BUDGET
 UBDSV1 SAVING "         STORAGE" ON UNIT  39 AT TIME STEP 12, STRESS PERIOD  29
 UBDSV2 SAVING "   CONSTANT HEAD" ON UNIT  39 AT TIME STEP 12, STRESS PERIOD  29
 UBDSV1 SAVING "FLOW RIGHT FACE " ON UNIT  39 AT TIME STEP 12, STRESS PERIOD  29
 UBDSV1 SAVING "FLOW FRONT FACE " ON UNIT  39 AT TIME STEP 12, STRESS PERIOD  29
 UBDSV1 SAVING "FLOW LOWER FACE " ON UNIT  39 AT TIME STEP 12, STRESS PERIOD  29
 UBDSV4 SAVING "           WELLS" ON UNIT  39 AT TIME STEP 12, STRESS PERIOD  29
 UBDSV3 SAVING "              ET" ON UNIT  39 AT TIME STEP 12, STRESS PERIOD  29
 UBDSV3 SAVING "        RECHARGE" ON UNIT  39 AT TIME STEP 12, STRESS PERIOD  29

 INTERPOLATION FOR HEAD OBS# 8203, ID 2355-30-1    CHANGED BECAUSE AT LEAST ONE
 NEIGHBORING CELL REQUIRED FOR INTERPOLATION IS DRY OR INACTIVE (OBS2BAS7SE)

 INTERPOLATION FOR HEAD OBS# 8225, ID 1427-30-11   CHANGED BECAUSE AT LEAST ONE
 NEIGHBORING CELL REQUIRED FOR INTERPOLATION IS DRY OR INACTIVE (OBS2BAS7SE)
1
  VOLUMETRIC BUDGET FOR ENTIRE MODEL AT END OF TIME STEP   12, STRESS PERIOD  29
  ------------------------------------------------------------------------------

     CUMULATIVE VOLUMES      L**3       RATES FOR THIS TIME STEP      L**3/T
     ------------------                 ------------------------

           IN:                                      IN:
           ---                                      ---
             STORAGE     =171455496192.0000               STORAGE     =    24764612.0000
       CONSTANT HEAD     = 14140760064.0000         CONSTANT HEAD     =     1632535.6250
               WELLS     = 12983199744.0000                 WELLS     =     1225642.0000
                  ET     =           0.0000                    ET     =           0.0000
            RECHARGE     =173939916800.0000              RECHARGE     =    16581641.0000

                TOTAL IN =372519370752.0000                  TOTAL IN =    44204432.0000

          OUT:                                     OUT:
          ----                                     ----
             STORAGE     = 22829207552.0000               STORAGE     =     1299108.0000
       CONSTANT HEAD     = 38248058880.0000         CONSTANT HEAD     =     3283803.0000
               WELLS     =300966150144.0000                 WELLS     =    38673048.0000
                  ET     = 10475718656.0000                    ET     =      948529.5000
            RECHARGE     =           0.0000              RECHARGE     =           0.0000

               TOTAL OUT =372519141376.0000                 TOTAL OUT =    44204488.0000

                IN - OUT =      229376.0000                  IN - OUT =         -56.0000

     PERCENT DISCREPANCY =           0.00         PERCENT DISCREPANCY =          -0.00






         TIME SUMMARY AT END OF TIME STEP   12 IN STRESS PERIOD   29
                    SECONDS     MINUTES      HOURS       DAYS        YEARS
                    -----------------------------------------------------------
   TIME STEP LENGTH 2.63520E+06  43920.      732.00      30.500     8.35044E-02
 STRESS PERIOD TIME 3.16224E+07 5.27040E+05  8784.0      366.00      1.0021    
         TOTAL TIME 9.15236E+08 1.52539E+07 2.54232E+05  10593.      29.002    
1
1
                            STRESS PERIOD NO.   30, LENGTH =   365.0000    
                            -----------------------------------------------

                              NUMBER OF TIME STEPS =    12

                               MULTIPLIER FOR DELT =     1.000

                            INITIAL TIME STEP SIZE =   30.41667    

   1520 WELLS

 REUSING SURF FROM LAST STRESS PERIOD

 REUSING EVTR FROM LAST STRESS PERIOD

 REUSING EXDP FROM LAST STRESS PERIOD



                           RECHARGE
 READING ON UNIT   16 WITH FORMAT: (15F5.0)            


     63 TIME-VARIANT SPECIFIED-HEAD CELLS
 
 SOLVING FOR HEAD 
                                                   Max.-Head-Change                        Max.-Flux-Residual
  Residual-Control   Outer-Iter.   Inner-Iter.     Column Row Layer    Max.-Head-Change    Column Row Layer    Max.-Flux-Residual            L2-New               L2-Old           Solver-Max-Delh
          0                 1          11            23   46     2       0.4596486777E+02      32   21    2      -0.4880957506E+06      0.1151892536E+07      0.5083507683E+03      0.4596486777E+02
          0                 2          10            23   46     2      -0.3076810713E+02      23   46    2      -0.9033084501E+06      0.9177250609E+06      0.1151892536E+07     -0.3076810713E+02
          0                 3           9            23   47     2       0.5263232932E+01      23   46    2      -0.1172538153E+06      0.1312629485E+06      0.9177250609E+06      0.5263232932E+01
          0                 4           8            23   47     2       0.9530292197E+00      23   46    2      -0.6579005662E+04      0.1006407095E+05      0.1312629485E+06      0.9530292197E+00
          0                 5           7            23   47     2       0.9269877930E-01      23   47    2       0.3794958149E+03      0.7210922817E+03      0.1006407095E+05      0.9269877930E-01
          0                 6           6            23   47     2       0.8693643394E-02      23   47    2       0.3552619552E+02      0.6618083819E+02      0.7210922817E+03      0.8693643394E-02

    ------------------------------------------------
       NWT REQUIRED            6 OUTER ITERATIONS 
       AND A TOTAL OF         51 INNER ITERATIONS.
    ------------------------------------------------

 NO OUTPUT CONTROL FOR STRESS PERIOD   30   TIME STEP    1
 
 SOLVING FOR HEAD 
                                                   Max.-Head-Change                        Max.-Flux-Residual
  Residual-Control   Outer-Iter.   Inner-Iter.     Column Row Layer    Max.-Head-Change    Column Row Layer    Max.-Flux-Residual            L2-New               L2-Old           Solver-Max-Delh
          0                 1          11            58   89     3      -0.5802788272E+01      32   21    2      -0.1953277102E+06      0.7038485404E+06      0.6618083819E+02     -0.5802788272E+01
          0                 2          10            66    4     2      -0.3733630647E+01      55   82    2      -0.2885628575E+05      0.8064464278E+05      0.7038485404E+06     -0.3733630647E+01
          0                 3           6            59   86     2       0.1183004070E+00      66  101    1      -0.1709751602E+04      0.2918471556E+04      0.8064464278E+05      0.1183004070E+00
          0                 4           4            66    4     2       0.6949799146E-02      66  101    1      -0.1540049849E+03      0.1541752018E+03      0.2918471556E+04      0.6949799146E-02

    ------------------------------------------------
       NWT REQUIRED            4 OUTER ITERATIONS 
       AND A TOTAL OF         31 INNER ITERATIONS.
    ------------------------------------------------

 NO OUTPUT CONTROL FOR STRESS PERIOD   30   TIME STEP    2
 
 SOLVING FOR HEAD 
                                                   Max.-Head-Change                        Max.-Flux-Residual
  Residual-Control   Outer-Iter.   Inner-Iter.     Column Row Layer    Max.-Head-Change    Column Row Layer    Max.-Flux-Residual            L2-New               L2-Old           Solver-Max-Delh
          0                 1          11            58   89     3      -0.5114418542E+01      58   89    3      -0.1215151474E+06      0.6208156415E+06      0.1541752018E+03     -0.5114418542E+01
          0                 2          10            66  101     1      -0.3105820486E+01      58   89    3       0.1171499436E+05      0.6494639010E+05      0.6208156415E+06     -0.3105820486E+01
          0                 3           6            66  101     1       0.2465202275E+00      24   22    1      -0.1546074642E+04      0.1971935781E+04      0.6494639010E+05      0.2465202275E+00
          0                 4           5            66  101     1       0.2602003836E-02      24   22    1      -0.1391996302E+03      0.1519310467E+03      0.1971935781E+04      0.2602003836E-02

    ------------------------------------------------
       NWT REQUIRED            4 OUTER ITERATIONS 
       AND A TOTAL OF         32 INNER ITERATIONS.
    ------------------------------------------------

 NO OUTPUT CONTROL FOR STRESS PERIOD   30   TIME STEP    3
 
 SOLVING FOR HEAD 
                                                   Max.-Head-Change                        Max.-Flux-Residual
  Residual-Control   Outer-Iter.   Inner-Iter.     Column Row Layer    Max.-Head-Change    Column Row Layer    Max.-Flux-Residual            L2-New               L2-Old           Solver-Max-Delh
          0                 1          11            58   89     3      -0.4563452226E+01      58   89    3      -0.1070515691E+06      0.5845819668E+06      0.1519310467E+03     -0.4563452226E+01
          0                 2          10            88   67     1      -0.1088638204E+02      55   83    2      -0.2021401724E+05      0.6798227018E+05      0.5845819668E+06     -0.1088638204E+02
          0                 3           6            88   67     1       0.6676242032E+00      24   22    1       0.9189000249E+03      0.1761969665E+04      0.6798227018E+05      0.6676242032E+00
          0                 4           3            88   67     1       0.1966386335E-01      88   67    1       0.2627205834E+02      0.2631871378E+02      0.1761969665E+04      0.1966386335E-01
          0                 5           2            88   67     1       0.5773628899E-03      88   67    1       0.7713145562E+00      0.7848825505E+00      0.2631871378E+02      0.5773628899E-03

    ------------------------------------------------
       NWT REQUIRED            5 OUTER ITERATIONS 
       AND A TOTAL OF         32 INNER ITERATIONS.
    ------------------------------------------------

 NO OUTPUT CONTROL FOR STRESS PERIOD   30   TIME STEP    4
 
 SOLVING FOR HEAD 
                                                   Max.-Head-Change                        Max.-Flux-Residual
  Residual-Control   Outer-Iter.   Inner-Iter.     Column Row Layer    Max.-Head-Change    Column Row Layer    Max.-Flux-Residual            L2-New               L2-Old           Solver-Max-Delh
          0                 1          11            88   67     1      -0.4961621032E+01      58   89    3      -0.9476304452E+05      0.5634603377E+06      0.7848825505E+00     -0.4961621032E+01
          0                 2          10            21   40     2      -0.3372026141E+01      58   89    3       0.9292555259E+04      0.5943177999E+05      0.5634603377E+06     -0.3372026141E+01
          0                 3           7            21   40     2       0.2676926351E+00      23   21    1      -0.4826818512E+04      0.5785097396E+04      0.5943177999E+05      0.2676926351E+00
          0                 4           6            23   21     1      -0.4419412702E-02      23   21    1      -0.4352414029E+03      0.5126615785E+03      0.5785097396E+04     -0.4419412702E-02

    ------------------------------------------------
       NWT REQUIRED            4 OUTER ITERATIONS 
       AND A TOTAL OF         34 INNER ITERATIONS.
    ------------------------------------------------

 NO OUTPUT CONTROL FOR STRESS PERIOD   30   TIME STEP    5
 
 SOLVING FOR HEAD 
                                                   Max.-Head-Change                        Max.-Flux-Residual
  Residual-Control   Outer-Iter.   Inner-Iter.     Column Row Layer    Max.-Head-Change    Column Row Layer    Max.-Flux-Residual            L2-New               L2-Old           Solver-Max-Delh
          0                 1          11            58   89     3      -0.3549775913E+01      58   89    3      -0.8330875423E+05      0.5487107656E+06      0.5126615785E+03     -0.3549775913E+01
          0                 2          10            58   89     3       0.3151613823E+00      29   28    2       0.1035129320E+05      0.5877908050E+05      0.5487107656E+06      0.3151613823E+00
          0                 3           6            21    6     1       0.2706695082E-01      23   21    1       0.9706496483E+03      0.1803631523E+04      0.5877908050E+05      0.2706695082E-01
          0                 4           3            92   77     2       0.6375178127E-04      21    6    1       0.7554915249E+00      0.1393008107E+01      0.1803631523E+04      0.6375178127E-04

    ------------------------------------------------
       NWT REQUIRED            4 OUTER ITERATIONS 
       AND A TOTAL OF         30 INNER ITERATIONS.
    ------------------------------------------------

 NO OUTPUT CONTROL FOR STRESS PERIOD   30   TIME STEP    6
 
 SOLVING FOR HEAD 
                                                   Max.-Head-Change                        Max.-Flux-Residual
  Residual-Control   Outer-Iter.   Inner-Iter.     Column Row Layer    Max.-Head-Change    Column Row Layer    Max.-Flux-Residual            L2-New               L2-Old           Solver-Max-Delh
          0                 1          11            19   37     2      -0.3323624324E+01      58   89    3      -0.7418669501E+05      0.5384980967E+06      0.1393008107E+01     -0.3323624324E+01
          0                 2          10            22   43     2      -0.1563992601E+01      26   20    2       0.1303151421E+05      0.5824362287E+05      0.5384980967E+06     -0.1563992601E+01
          0                 3           6            22   43     2       0.1270643933E+00      29   28    1       0.9131313231E+03      0.1132673490E+04      0.5824362287E+05      0.1270643933E+00
          0                 4           4            22   43     2       0.1251689518E-02      22   43    2       0.2089810667E+01      0.2908278639E+01      0.1132673490E+04      0.1251689518E-02

    ------------------------------------------------
       NWT REQUIRED            4 OUTER ITERATIONS 
       AND A TOTAL OF         31 INNER ITERATIONS.
    ------------------------------------------------

 NO OUTPUT CONTROL FOR STRESS PERIOD   30   TIME STEP    7
 
 SOLVING FOR HEAD 
                                                   Max.-Head-Change                        Max.-Flux-Residual
  Residual-Control   Outer-Iter.   Inner-Iter.     Column Row Layer    Max.-Head-Change    Column Row Layer    Max.-Flux-Residual            L2-New               L2-Old           Solver-Max-Delh
          0                 1          11            22   43     2      -0.2929914521E+01      58   89    3      -0.6683558007E+05      0.5305656687E+06      0.2908278639E+01     -0.2929914521E+01
          0                 2          10            22    5     1      -0.4075592032E+00      33   27    2       0.1427712534E+05      0.5900712582E+05      0.5305656687E+06     -0.4075592032E+00
          0                 3           6            22    5     1       0.3604634741E-01      27   23    1       0.1253259122E+04      0.1886514423E+04      0.5900712582E+05      0.3604634741E-01
          0                 4           3            22    5     1       0.9042992648E-04      58   88    3      -0.2761249234E+01      0.3354294838E+01      0.1886514423E+04      0.9042992648E-04

    ------------------------------------------------
       NWT REQUIRED            4 OUTER ITERATIONS 
       AND A TOTAL OF         30 INNER ITERATIONS.
    ------------------------------------------------

 NO OUTPUT CONTROL FOR STRESS PERIOD   30   TIME STEP    8
 
 SOLVING FOR HEAD 
                                                   Max.-Head-Change                        Max.-Flux-Residual
  Residual-Control   Outer-Iter.   Inner-Iter.     Column Row Layer    Max.-Head-Change    Column Row Layer    Max.-Flux-Residual            L2-New               L2-Old           Solver-Max-Delh
          0                 1          11            58   89     3      -0.2676304459E+01      58   89    3      -0.6084483503E+05      0.5240208663E+06      0.3354294838E+01     -0.2676304459E+01
          0                 2          10            35   17     2      -0.2985540719E+01      25   22    2       0.1788406551E+05      0.5672830571E+05      0.5240208663E+06     -0.2985540719E+01
          0                 3           7            35   17     2       0.2251883337E+00      36   24    1       0.6063307407E+03      0.9461608938E+03      0.5672830571E+05      0.2251883337E+00
          0                 4           4            35   17     2       0.3478209200E-02      35   17    2       0.6212020150E+01      0.9210287045E+01      0.9461608938E+03      0.3478209200E-02

    ------------------------------------------------
       NWT REQUIRED            4 OUTER ITERATIONS 
       AND A TOTAL OF         32 INNER ITERATIONS.
    ------------------------------------------------

 NO OUTPUT CONTROL FOR STRESS PERIOD   30   TIME STEP    9
 
 SOLVING FOR HEAD 
                                                   Max.-Head-Change                        Max.-Flux-Residual
  Residual-Control   Outer-Iter.   Inner-Iter.     Column Row Layer    Max.-Head-Change    Column Row Layer    Max.-Flux-Residual            L2-New               L2-Old           Solver-Max-Delh
          0                 1          11            58   89     3      -0.2440431467E+01      58   89    3      -0.5542695766E+05      0.5189235983E+06      0.9210287045E+01     -0.2440431467E+01
          0                 2          10            33   27     1      -0.4042862211E+00      33   27    1      -0.1065119395E+05      0.5444633006E+05      0.5189235983E+06     -0.4042862211E+00
          0                 3           7            15   26     2      -0.5106006172E-01      15   26    2      -0.2151573794E+04      0.2819816808E+04      0.5444633006E+05     -0.5106006172E-01
          0                 4           5            15   26     2      -0.4605549204E-02      15   26    2      -0.1939778470E+03      0.2302373355E+03      0.2819816808E+04     -0.4605549204E-02

    ------------------------------------------------
       NWT REQUIRED            4 OUTER ITERATIONS 
       AND A TOTAL OF         33 INNER ITERATIONS.
    ------------------------------------------------

 NO OUTPUT CONTROL FOR STRESS PERIOD   30   TIME STEP   10
 
 SOLVING FOR HEAD 
                                                   Max.-Head-Change                        Max.-Flux-Residual
  Residual-Control   Outer-Iter.   Inner-Iter.     Column Row Layer    Max.-Head-Change    Column Row Layer    Max.-Flux-Residual            L2-New               L2-Old           Solver-Max-Delh
          0                 1          11            58   89     3      -0.2264381545E+01      58   89    3      -0.5097061111E+05      0.5142264038E+06      0.2302373355E+03     -0.2264381545E+01
          0                 2          10            70   19     1      -0.1718679687E+01      70   19    1      -0.1285571136E+05      0.5696039898E+05      0.5142264038E+06     -0.1718679687E+01
          0                 3           6            70   19     1       0.1498060874E+00      21    5    1      -0.1403148426E+04      0.2787027358E+04      0.5696039898E+05      0.1498060874E+00
          0                 4           4            21    5     1      -0.2931324342E-02      21    5    1      -0.1263580416E+03      0.1455977007E+03      0.2787027358E+04     -0.2931324342E-02

    ------------------------------------------------
       NWT REQUIRED            4 OUTER ITERATIONS 
       AND A TOTAL OF         31 INNER ITERATIONS.
    ------------------------------------------------

 NO OUTPUT CONTROL FOR STRESS PERIOD   30   TIME STEP   11
 
 SOLVING FOR HEAD 
                                                   Max.-Head-Change                        Max.-Flux-Residual
  Residual-Control   Outer-Iter.   Inner-Iter.     Column Row Layer    Max.-Head-Change    Column Row Layer    Max.-Flux-Residual            L2-New               L2-Old           Solver-Max-Delh
          0                 1          11            22   42     2      -0.2528274712E+01      58   89    3      -0.4729046925E+05      0.5111815490E+06      0.1455977007E+03     -0.2528274712E+01
          0                 2          10            66   45     1      -0.5632994110E+00      26   22    2       0.8599435284E+04      0.5342295928E+05      0.5111815490E+06     -0.5632994110E+00
          0                 3           6            66   45     1       0.1291649801E+00      66   45    1       0.2015997119E+04      0.2742713698E+04      0.5342295928E+05      0.1291649801E+00
          0                 4           3            66   46     1      -0.1353559451E-02      66   46    1      -0.1243642545E+03      0.1402852884E+03      0.2742713698E+04     -0.1353559451E-02

    ------------------------------------------------
       NWT REQUIRED            4 OUTER ITERATIONS 
       AND A TOTAL OF         30 INNER ITERATIONS.
    ------------------------------------------------

 OUTPUT CONTROL FOR STRESS PERIOD   30   TIME STEP   12
    SAVE BUDGET
 UBDSV1 SAVING "         STORAGE" ON UNIT  39 AT TIME STEP 12, STRESS PERIOD  30
 UBDSV2 SAVING "   CONSTANT HEAD" ON UNIT  39 AT TIME STEP 12, STRESS PERIOD  30
 UBDSV1 SAVING "FLOW RIGHT FACE " ON UNIT  39 AT TIME STEP 12, STRESS PERIOD  30
 UBDSV1 SAVING "FLOW FRONT FACE " ON UNIT  39 AT TIME STEP 12, STRESS PERIOD  30
 UBDSV1 SAVING "FLOW LOWER FACE " ON UNIT  39 AT TIME STEP 12, STRESS PERIOD  30
 UBDSV4 SAVING "           WELLS" ON UNIT  39 AT TIME STEP 12, STRESS PERIOD  30
 UBDSV3 SAVING "              ET" ON UNIT  39 AT TIME STEP 12, STRESS PERIOD  30
 UBDSV3 SAVING "        RECHARGE" ON UNIT  39 AT TIME STEP 12, STRESS PERIOD  30

 INTERPOLATION FOR HEAD OBS# 8276, ID 2927-31-29   CHANGED BECAUSE AT LEAST ONE
 NEIGHBORING CELL REQUIRED FOR INTERPOLATION IS DRY OR INACTIVE (OBS2BAS7SE)

 INTERPOLATION FOR HEAD OBS# 8281, ID 2615-31-1    CHANGED BECAUSE AT LEAST ONE
 NEIGHBORING CELL REQUIRED FOR INTERPOLATION IS DRY OR INACTIVE (OBS2BAS7SE)
1
  VOLUMETRIC BUDGET FOR ENTIRE MODEL AT END OF TIME STEP   12, STRESS PERIOD  30
  ------------------------------------------------------------------------------

     CUMULATIVE VOLUMES      L**3       RATES FOR THIS TIME STEP      L**3/T
     ------------------                 ------------------------

           IN:                                      IN:
           ---                                      ---
             STORAGE     =181411381248.0000               STORAGE     =    26711554.0000
       CONSTANT HEAD     = 14722956288.0000         CONSTANT HEAD     =     1597655.5000
               WELLS     = 13430556672.0000                 WELLS     =     1225642.0000
                  ET     =           0.0000                    ET     =           0.0000
            RECHARGE     =180062683136.0000              RECHARGE     =    16774495.0000

                TOTAL IN =389627576320.0000                  TOTAL IN =    46309348.0000

          OUT:                                     OUT:
          ----                                     ----
             STORAGE     = 23266580480.0000               STORAGE     =      764607.8125
       CONSTANT HEAD     = 39426289664.0000         CONSTANT HEAD     =     3186717.7500
               WELLS     =316173778944.0000                 WELLS     =    41665260.0000
                  ET     = 10760414208.0000                    ET     =      692768.0000
            RECHARGE     =           0.0000              RECHARGE     =           0.0000

               TOTAL OUT =389627052032.0000                 TOTAL OUT =    46309352.0000

                IN - OUT =      524288.0000                  IN - OUT =          -4.0000

     PERCENT DISCREPANCY =           0.00         PERCENT DISCREPANCY =          -0.00






         TIME SUMMARY AT END OF TIME STEP   12 IN STRESS PERIOD   30
                    SECONDS     MINUTES      HOURS       DAYS        YEARS
                    -----------------------------------------------------------
   TIME STEP LENGTH 2.62800E+06  43800.      730.00      30.417     8.32763E-02
 STRESS PERIOD TIME 3.15360E+07 5.25600E+05  8760.0      365.00     0.99932    
         TOTAL TIME 9.46772E+08 1.57795E+07 2.62992E+05  10958.      30.001    
1
1
                            STRESS PERIOD NO.   31, LENGTH =   365.0000    
                            -----------------------------------------------

                              NUMBER OF TIME STEPS =    12

                               MULTIPLIER FOR DELT =     1.000

                            INITIAL TIME STEP SIZE =   30.41667    

   1647 WELLS

 REUSING SURF FROM LAST STRESS PERIOD

 REUSING EVTR FROM LAST STRESS PERIOD

 REUSING EXDP FROM LAST STRESS PERIOD



                           RECHARGE
 READING ON UNIT   16 WITH FORMAT: (15F5.0)            


     63 TIME-VARIANT SPECIFIED-HEAD CELLS
 
 SOLVING FOR HEAD 
                                                   Max.-Head-Change                        Max.-Flux-Residual
  Residual-Control   Outer-Iter.   Inner-Iter.     Column Row Layer    Max.-Head-Change    Column Row Layer    Max.-Flux-Residual            L2-New               L2-Old           Solver-Max-Delh
          0                 1          11            62   96     3      -0.1487527400E+03      32   21    2       0.4695664693E+06      0.1327638942E+07      0.1402852884E+03     -0.1487527400E+03
          0                 2          10            62   95     3       0.1459522298E+02      62   95    3       0.5974498554E+05      0.1386834139E+06      0.1327638942E+07      0.1459522298E+02
          0                 3           7            36   19     2      -0.1172937197E+00      36   19    2      -0.3894627356E+04      0.4469877678E+04      0.1386834139E+06     -0.1172937197E+00
          0                 4           5            36   19     2      -0.1058027938E-01      36   19    2      -0.3511479132E+03      0.3957453996E+03      0.4469877678E+04     -0.1058027938E-01
          0                 5           4            36   19     2      -0.9514586175E-03      36   19    2      -0.3157335451E+02      0.3558269553E+02      0.3957453996E+03     -0.9514586175E-03

    ------------------------------------------------
       NWT REQUIRED            5 OUTER ITERATIONS 
       AND A TOTAL OF         37 INNER ITERATIONS.
    ------------------------------------------------

 NO OUTPUT CONTROL FOR STRESS PERIOD   31   TIME STEP    1
 
 SOLVING FOR HEAD 
                                                   Max.-Head-Change                        Max.-Flux-Residual
  Residual-Control   Outer-Iter.   Inner-Iter.     Column Row Layer    Max.-Head-Change    Column Row Layer    Max.-Flux-Residual            L2-New               L2-Old           Solver-Max-Delh
          0                 1          11            63   96     3      -0.2506851828E+02      62   87    1      -0.2148791885E+06      0.7378709108E+06      0.3558269553E+02     -0.2506851828E+02
          0                 2          10            22   41     2      -0.2998214286E+01      62   87    1       0.1448958665E+05      0.7542280882E+05      0.7378709108E+06     -0.2998214286E+01
          0                 3           7            36   19     2       0.5947309426E+00      77   61    1      -0.2453422673E+04      0.4165367725E+04      0.7542280882E+05      0.5947309426E+00
          0                 4           5            77   61     1      -0.7657831961E-02      77   61    1      -0.2210640367E+03      0.2613490179E+03      0.4165367725E+04     -0.7657831961E-02

    ------------------------------------------------
       NWT REQUIRED            4 OUTER ITERATIONS 
       AND A TOTAL OF         33 INNER ITERATIONS.
    ------------------------------------------------

 NO OUTPUT CONTROL FOR STRESS PERIOD   31   TIME STEP    2
 
 SOLVING FOR HEAD 
                                                   Max.-Head-Change                        Max.-Flux-Residual
  Residual-Control   Outer-Iter.   Inner-Iter.     Column Row Layer    Max.-Head-Change    Column Row Layer    Max.-Flux-Residual            L2-New               L2-Old           Solver-Max-Delh
          0                 1          11            64   96     3      -0.8631620264E+01      62   87    1      -0.1429182657E+06      0.6257516894E+06      0.2613490179E+03     -0.8631620264E+01
          0                 2          10            20   39     2      -0.1802988482E+01      32   26    1      -0.2184898153E+05      0.6764090431E+05      0.6257516894E+06     -0.1802988482E+01
          0                 3           6            20   39     2       0.1447571839E+00      32   26    1       0.2136525770E+04      0.2403311832E+04      0.6764090431E+05      0.1447571839E+00
          0                 4           4            20   39     2       0.1520574265E-02      32   26    1       0.4255110078E+01      0.6153269001E+01      0.2403311832E+04      0.1520574265E-02

    ------------------------------------------------
       NWT REQUIRED            4 OUTER ITERATIONS 
       AND A TOTAL OF         31 INNER ITERATIONS.
    ------------------------------------------------

 NO OUTPUT CONTROL FOR STRESS PERIOD   31   TIME STEP    3

 INTERPOLATION FOR HEAD OBS# 8302, ID 1471-31-113  CHANGED BECAUSE AT LEAST ONE
 NEIGHBORING CELL REQUIRED FOR INTERPOLATION IS DRY OR INACTIVE (OBS2BAS7SE)
 
 SOLVING FOR HEAD 
                                                   Max.-Head-Change                        Max.-Flux-Residual
  Residual-Control   Outer-Iter.   Inner-Iter.     Column Row Layer    Max.-Head-Change    Column Row Layer    Max.-Flux-Residual            L2-New               L2-Old           Solver-Max-Delh
          0                 1          11            65   96     3      -0.4727681294E+01      62   87    1      -0.1061522459E+06      0.5817409783E+06      0.6153269001E+01     -0.4727681294E+01
          0                 2          10            20   39     2       0.8514008929E+00      62   87    1       0.1008395186E+05      0.5954871203E+05      0.5817409783E+06      0.8514008929E+00
          0                 3           6            32   32     1       0.3785816547E-01      21    7    1       0.3723276186E+03      0.6979124735E+03      0.5954871203E+05      0.3785816547E-01
          0                 4           3            32   32     1       0.1209408415E-03      32   32    1       0.1050441019E+01      0.1388342051E+01      0.6979124735E+03      0.1209408415E-03

    ------------------------------------------------
       NWT REQUIRED            4 OUTER ITERATIONS 
       AND A TOTAL OF         30 INNER ITERATIONS.
    ------------------------------------------------

 NO OUTPUT CONTROL FOR STRESS PERIOD   31   TIME STEP    4
 
 SOLVING FOR HEAD 
                                                   Max.-Head-Change                        Max.-Flux-Residual
  Residual-Control   Outer-Iter.   Inner-Iter.     Column Row Layer    Max.-Head-Change    Column Row Layer    Max.-Flux-Residual            L2-New               L2-Old           Solver-Max-Delh
          0                 1          11            65   96     3      -0.3154008857E+01      62   87    1      -0.8439607170E+05      0.5579072900E+06      0.1388342051E+01     -0.3154008857E+01
          0                 2          10            22    7     1      -0.3002335421E+00      62   87    1       0.8102368638E+04      0.5642612389E+05      0.5579072900E+06     -0.3002335421E+00
          0                 3           5            22    7     1       0.2682444724E-01      22    7    1       0.4896647120E+03      0.5940982530E+03      0.5642612389E+05      0.2682444724E-01
          0                 4           3            19    3     1       0.4596738793E-04      22    7    1       0.7449260578E+00      0.1045887611E+01      0.5940982530E+03      0.4596738793E-04

    ------------------------------------------------
       NWT REQUIRED            4 OUTER ITERATIONS 
       AND A TOTAL OF         29 INNER ITERATIONS.
    ------------------------------------------------

 NO OUTPUT CONTROL FOR STRESS PERIOD   31   TIME STEP    5
 
 SOLVING FOR HEAD 
                                                   Max.-Head-Change                        Max.-Flux-Residual
  Residual-Control   Outer-Iter.   Inner-Iter.     Column Row Layer    Max.-Head-Change    Column Row Layer    Max.-Flux-Residual            L2-New               L2-Old           Solver-Max-Delh
          0                 1          11            66  101     2       0.4210977261E+01      62   87    1      -0.7076187362E+05      0.5430741373E+06      0.1045887611E+01      0.4210977261E+01
          0                 2          10            51  103     3       0.8861416940E+01      51  103    3       0.1117136543E+05      0.5568466355E+05      0.5430741373E+06      0.8861416940E+01
          0                 3           6            51  103     3      -0.8055890637E+00      51  103    3      -0.1117136561E+04      0.1303525267E+04      0.5568466355E+05     -0.8055890637E+00
          0                 4           3            85   85     2      -0.3357203368E-04      73   12    2      -0.4299287428E+00      0.6502033753E+00      0.1303525267E+04     -0.3357203368E-04

    ------------------------------------------------
       NWT REQUIRED            4 OUTER ITERATIONS 
       AND A TOTAL OF         30 INNER ITERATIONS.
    ------------------------------------------------

 NO OUTPUT CONTROL FOR STRESS PERIOD   31   TIME STEP    6
 
 SOLVING FOR HEAD 
                                                   Max.-Head-Change                        Max.-Flux-Residual
  Residual-Control   Outer-Iter.   Inner-Iter.     Column Row Layer    Max.-Head-Change    Column Row Layer    Max.-Flux-Residual            L2-New               L2-Old           Solver-Max-Delh
          0                 1          11            51  103     3       0.2984572482E+01      62   87    1      -0.6177800218E+05      0.5323947255E+06      0.6502033753E+00      0.2984572482E+01
          0                 2          10            21    4     1      -0.4303144059E+00      23   14    2       0.7554670886E+04      0.5494375348E+05      0.5323947255E+06     -0.4303144059E+00
          0                 3           6            21    4     1       0.3795969840E-01      23   14    1      -0.7557608876E+03      0.1164543347E+04      0.5494375348E+05      0.3795969840E-01
          0                 4           5            23   14     1      -0.1029230459E-02      23   14    1      -0.6803025450E+02      0.6805415277E+02      0.1164543347E+04     -0.1029230459E-02

    ------------------------------------------------
       NWT REQUIRED            4 OUTER ITERATIONS 
       AND A TOTAL OF         32 INNER ITERATIONS.
    ------------------------------------------------

 NO OUTPUT CONTROL FOR STRESS PERIOD   31   TIME STEP    7
 
 SOLVING FOR HEAD 
                                                   Max.-Head-Change                        Max.-Flux-Residual
  Residual-Control   Outer-Iter.   Inner-Iter.     Column Row Layer    Max.-Head-Change    Column Row Layer    Max.-Flux-Residual            L2-New               L2-Old           Solver-Max-Delh
          0                 1          11            68   43     3      -0.2236567353E+01      62   87    1      -0.5558749687E+05      0.5244288477E+06      0.6805415277E+02     -0.2236567353E+01
          0                 2          10            68   46     1      -0.6644019438E+00      23   14    1      -0.7019751068E+04      0.5427316255E+05      0.5244288477E+06     -0.6644019438E+00
          0                 3           7            30   46     2      -0.8383763734E-01      30   46    2      -0.1641365856E+04      0.2325464233E+04      0.5427316255E+05     -0.8383763734E-01
          0                 4           5            30   46     1      -0.7698573759E-02      30   46    2      -0.1483386062E+03      0.1825256663E+03      0.2325464233E+04     -0.7698573759E-02

    ------------------------------------------------
       NWT REQUIRED            4 OUTER ITERATIONS 
       AND A TOTAL OF         33 INNER ITERATIONS.
    ------------------------------------------------

 NO OUTPUT CONTROL FOR STRESS PERIOD   31   TIME STEP    8
 
 SOLVING FOR HEAD 
                                                   Max.-Head-Change                        Max.-Flux-Residual
  Residual-Control   Outer-Iter.   Inner-Iter.     Column Row Layer    Max.-Head-Change    Column Row Layer    Max.-Flux-Residual            L2-New               L2-Old           Solver-Max-Delh
          0                 1          11            68   43     3      -0.2195599750E+01      62   87    1      -0.5105485247E+05      0.5177025776E+06      0.1825256663E+03     -0.2195599750E+01
          0                 2          10            30   46     2      -0.3584147395E+01      55   84    3       0.1194132903E+05      0.5525143243E+05      0.5177025776E+06     -0.3584147395E+01
          0                 3           8            30   46     2       0.1171348029E+01      30   46    2       0.4185890737E+04      0.6559342221E+04      0.5525143243E+05      0.1171348029E+01
          0                 4           6            30   46     1       0.1461271580E-01      21    9    1      -0.2743354641E+03      0.3065987213E+03      0.6559342221E+04      0.1461271580E-01
          0                 5           4            21    9     1      -0.4250741180E-03      21    9    1      -0.2466455299E+02      0.2633812161E+02      0.3065987213E+03     -0.4250741180E-03

    ------------------------------------------------
       NWT REQUIRED            5 OUTER ITERATIONS 
       AND A TOTAL OF         39 INNER ITERATIONS.
    ------------------------------------------------

 NO OUTPUT CONTROL FOR STRESS PERIOD   31   TIME STEP    9

 INTERPOLATION FOR HEAD OBS#  628, ID 3019-31-297  CHANGED BECAUSE AT LEAST ONE
 NEIGHBORING CELL REQUIRED FOR INTERPOLATION IS DRY OR INACTIVE (OBS2BAS7SE)
 
 SOLVING FOR HEAD 
                                                   Max.-Head-Change                        Max.-Flux-Residual
  Residual-Control   Outer-Iter.   Inner-Iter.     Column Row Layer    Max.-Head-Change    Column Row Layer    Max.-Flux-Residual            L2-New               L2-Old           Solver-Max-Delh
          0                 1          11            65    7     2      -0.7578183646E+01      62   87    1      -0.4782339758E+05      0.5133106987E+06      0.2633812161E+02     -0.7578183646E+01
          0                 2          10            55   83     3       0.2257735257E+01      55   83    3       0.1273292473E+05      0.5414978204E+05      0.5133106987E+06      0.2257735257E+01
          0                 3           6            55   83     3      -0.2052781863E+00      55   83    3      -0.1273292493E+04      0.1811137756E+04      0.5414978204E+05     -0.2052781863E+00
          0                 4           3            65    7     2       0.6780134224E-03      19   36    2       0.1823206429E+01      0.2457632814E+01      0.1811137756E+04      0.6780134224E-03

    ------------------------------------------------
       NWT REQUIRED            4 OUTER ITERATIONS 
       AND A TOTAL OF         30 INNER ITERATIONS.
    ------------------------------------------------

 NO OUTPUT CONTROL FOR STRESS PERIOD   31   TIME STEP   10
 
 SOLVING FOR HEAD 
                                                   Max.-Head-Change                        Max.-Flux-Residual
  Residual-Control   Outer-Iter.   Inner-Iter.     Column Row Layer    Max.-Head-Change    Column Row Layer    Max.-Flux-Residual            L2-New               L2-Old           Solver-Max-Delh
          0                 1          11            55   82     3       0.2626713517E+01      62   87    1      -0.4540574040E+05      0.5091943904E+06      0.2457632814E+01      0.2626713517E+01
          0                 2          10            14   23     2      -0.2403492223E+01      14   23    2      -0.7974548539E+04      0.5284616036E+05      0.5091943904E+06     -0.2403492223E+01
          0                 3           7            14   23     2       0.3800585088E+00      14   23    2       0.1616532966E+04      0.1966293958E+04      0.5284616036E+05      0.3800585088E+00
          0                 4           5            14   23     2       0.2560953237E-02      15   23    2      -0.5849685256E+02      0.6000067684E+02      0.1966293958E+04      0.2560953237E-02

    ------------------------------------------------
       NWT REQUIRED            4 OUTER ITERATIONS 
       AND A TOTAL OF         33 INNER ITERATIONS.
    ------------------------------------------------

 NO OUTPUT CONTROL FOR STRESS PERIOD   31   TIME STEP   11

 INTERPOLATION FOR HEAD OBS#  632, ID 3012-31-339  CHANGED BECAUSE AT LEAST ONE
 NEIGHBORING CELL REQUIRED FOR INTERPOLATION IS DRY OR INACTIVE (OBS2BAS7SE)
 
 SOLVING FOR HEAD 
                                                   Max.-Head-Change                        Max.-Flux-Residual
  Residual-Control   Outer-Iter.   Inner-Iter.     Column Row Layer    Max.-Head-Change    Column Row Layer    Max.-Flux-Residual            L2-New               L2-Old           Solver-Max-Delh
          0                 1          11            68   43     3      -0.2086638607E+01      68   43    3      -0.4426145403E+05      0.5057650944E+06      0.6000067684E+02     -0.2086638607E+01
          0                 2          10            68   45     1      -0.1061199399E+01      33   26    1      -0.6969840728E+04      0.5151551884E+05      0.5057650944E+06     -0.1061199399E+01
          0                 3           6            68   45     1       0.8674493464E-01      33   26    1       0.6880572844E+03      0.9012405293E+03      0.5151551884E+05      0.8674493464E-01
          0                 4           3            68   45     1       0.7948618301E-03      19   72    2      -0.8796871930E+01      0.9279875086E+01      0.9012405293E+03      0.7948618301E-03

    ------------------------------------------------
       NWT REQUIRED            4 OUTER ITERATIONS 
       AND A TOTAL OF         30 INNER ITERATIONS.
    ------------------------------------------------

 OUTPUT CONTROL FOR STRESS PERIOD   31   TIME STEP   12
    SAVE BUDGET
    SAVE HEAD FOR LAYERS:   1  2  3
 UBDSV1 SAVING "         STORAGE" ON UNIT  39 AT TIME STEP 12, STRESS PERIOD  31
 UBDSV2 SAVING "   CONSTANT HEAD" ON UNIT  39 AT TIME STEP 12, STRESS PERIOD  31
 UBDSV1 SAVING "FLOW RIGHT FACE " ON UNIT  39 AT TIME STEP 12, STRESS PERIOD  31
 UBDSV1 SAVING "FLOW FRONT FACE " ON UNIT  39 AT TIME STEP 12, STRESS PERIOD  31
 UBDSV1 SAVING "FLOW LOWER FACE " ON UNIT  39 AT TIME STEP 12, STRESS PERIOD  31
 UBDSV4 SAVING "           WELLS" ON UNIT  39 AT TIME STEP 12, STRESS PERIOD  31
 UBDSV3 SAVING "              ET" ON UNIT  39 AT TIME STEP 12, STRESS PERIOD  31
 UBDSV3 SAVING "        RECHARGE" ON UNIT  39 AT TIME STEP 12, STRESS PERIOD  31

 HEAD WILL BE SAVED ON UNIT   31 AT END OF TIME STEP   12, STRESS PERIOD   31
1
  VOLUMETRIC BUDGET FOR ENTIRE MODEL AT END OF TIME STEP   12, STRESS PERIOD  31
  ------------------------------------------------------------------------------

     CUMULATIVE VOLUMES      L**3       RATES FOR THIS TIME STEP      L**3/T
     ------------------                 ------------------------

           IN:                                      IN:
           ---                                      ---
             STORAGE     =191175213056.0000               STORAGE     =    26273208.0000
       CONSTANT HEAD     = 15353397248.0000         CONSTANT HEAD     =     1776932.3750
               WELLS     = 13877913600.0000                 WELLS     =     1225642.0000
                  ET     =           0.0000                    ET     =           0.0000
            RECHARGE     =186836025344.0000              RECHARGE     =    18557084.0000

                TOTAL IN =407242539008.0000                  TOTAL IN =    47832864.0000

          OUT:                                     OUT:
          ----                                     ----
             STORAGE     = 23639769088.0000               STORAGE     =      649413.2500
       CONSTANT HEAD     = 40630898688.0000         CONSTANT HEAD     =     3312743.2500
               WELLS     =332012912640.0000                 WELLS     =    43394608.0000
                  ET     = 10958505984.0000                    ET     =      476107.7500
            RECHARGE     =           0.0000              RECHARGE     =           0.0000

               TOTAL OUT =407242080256.0000                 TOTAL OUT =    47832872.0000

                IN - OUT =      458752.0000                  IN - OUT =          -8.0000

     PERCENT DISCREPANCY =           0.00         PERCENT DISCREPANCY =          -0.00






         TIME SUMMARY AT END OF TIME STEP   12 IN STRESS PERIOD   31
                    SECONDS     MINUTES      HOURS       DAYS        YEARS
                    -----------------------------------------------------------
   TIME STEP LENGTH 2.62800E+06  43800.      730.00      30.417     8.32763E-02
 STRESS PERIOD TIME 3.15360E+07 5.25600E+05  8760.0      365.00     0.99932    
         TOTAL TIME 9.78308E+08 1.63051E+07 2.71752E+05  11323.      31.001    
1
1
                            STRESS PERIOD NO.   32, LENGTH =   365.0000    
                            -----------------------------------------------

                              NUMBER OF TIME STEPS =    12

                               MULTIPLIER FOR DELT =     1.000

                            INITIAL TIME STEP SIZE =   30.41667    

   1689 WELLS

 REUSING SURF FROM LAST STRESS PERIOD

 REUSING EVTR FROM LAST STRESS PERIOD

 REUSING EXDP FROM LAST STRESS PERIOD



                           RECHARGE
 READING ON UNIT   16 WITH FORMAT: (15F5.0)            


     63 TIME-VARIANT SPECIFIED-HEAD CELLS
 
 SOLVING FOR HEAD 
                                                   Max.-Head-Change                        Max.-Flux-Residual
  Residual-Control   Outer-Iter.   Inner-Iter.     Column Row Layer    Max.-Head-Change    Column Row Layer    Max.-Flux-Residual            L2-New               L2-Old           Solver-Max-Delh
          0                 1          11            62   96     3       0.1201702956E+03      62   96    3       0.3511436380E+06      0.1120143080E+07      0.9279875086E+01      0.1201702956E+03
          0                 2          10            92   77     2       0.4008031048E+02      88   67    1      -0.5129305112E+06      0.5285258008E+06      0.1120143080E+07      0.4008031048E+02
          0                 3           6            92   77     2      -0.2560948855E+02      92   77    2      -0.7685801270E+06      0.7693336729E+06      0.5285258008E+06     -0.2560948855E+02
          0                 4           4            91   77     2       0.6158935755E+01      92   77    2      -0.9225225659E+04      0.1121430871E+05      0.7693336729E+06      0.6158935755E+01
          0                 5           3            91   77     2       0.8939919195E+00      91   77    2       0.4900594315E+03      0.6687665672E+03      0.1121430871E+05      0.8939919195E+00
          0                 6           2            91   77     2       0.1259469187E+00      91   77    2       0.6898229595E+02      0.8030865020E+02      0.6687665672E+03      0.1259469187E+00
          0                 7           2            91   77     2       0.1774730385E-01      91   77    2       0.9720042989E+01      0.1046847456E+02      0.8030865020E+02      0.1774730385E-01
          0                 8           1            91   77     2       0.2499434295E-02      91   77    2       0.1368816977E+01      0.1437922465E+01      0.1046847456E+02      0.2499434295E-02

    ------------------------------------------------
       NWT REQUIRED            8 OUTER ITERATIONS 
       AND A TOTAL OF         39 INNER ITERATIONS.
    ------------------------------------------------

 NO OUTPUT CONTROL FOR STRESS PERIOD   32   TIME STEP    1
 
 SOLVING FOR HEAD 
                                                   Max.-Head-Change                        Max.-Flux-Residual
  Residual-Control   Outer-Iter.   Inner-Iter.     Column Row Layer    Max.-Head-Change    Column Row Layer    Max.-Flux-Residual            L2-New               L2-Old           Solver-Max-Delh
          0                 1          11            63   96     3       0.1880842860E+02      62   86    1      -0.1296463568E+06      0.6509794705E+06      0.1437922465E+01      0.1880842860E+02
          0                 2           9            63   96     3      -0.1710976163E+01      61   87    2       0.2091925432E+05      0.6863845495E+05      0.6509794705E+06     -0.1710976163E+01
          0                 3           6            20    6     1       0.2368370112E-01      20    6    1       0.3952167121E+03      0.6182832568E+03      0.6863845495E+05      0.2368370112E-01
          0                 4           3            53  118     1      -0.1185917156E-03      53  118    1      -0.8166010559E+01      0.8414317055E+01      0.6182832568E+03     -0.1185917156E-03

    ------------------------------------------------
       NWT REQUIRED            4 OUTER ITERATIONS 
       AND A TOTAL OF         29 INNER ITERATIONS.
    ------------------------------------------------

 NO OUTPUT CONTROL FOR STRESS PERIOD   32   TIME STEP    2

 INTERPOLATION FOR HEAD OBS# 3401, ID 1428-32-85   CHANGED BECAUSE AT LEAST ONE
 NEIGHBORING CELL REQUIRED FOR INTERPOLATION IS DRY OR INACTIVE (OBS2BAS7SE)

 INTERPOLATION FOR HEAD OBS# 6992, ID 683-32-61    CHANGED BECAUSE AT LEAST ONE
 NEIGHBORING CELL REQUIRED FOR INTERPOLATION IS DRY OR INACTIVE (OBS2BAS7SE)
 
 SOLVING FOR HEAD 
                                                   Max.-Head-Change                        Max.-Flux-Residual
  Residual-Control   Outer-Iter.   Inner-Iter.     Column Row Layer    Max.-Head-Change    Column Row Layer    Max.-Flux-Residual            L2-New               L2-Old           Solver-Max-Delh
          0                 1          11            64   96     3       0.6177601126E+01      62   86    1      -0.9283137434E+05      0.5670852940E+06      0.8414317055E+01      0.6177601126E+01
          0                 2           9            22   40     2      -0.8827579545E+00      61   87    1      -0.9156718237E+04      0.5771243522E+05      0.5670852940E+06     -0.8827579545E+00
          0                 3           6            22   40     2       0.7112164017E-01      61   87    1       0.8937378250E+03      0.1415911144E+04      0.5771243522E+05      0.7112164017E-01
          0                 4           4            22   40     2       0.7607839150E-03      17   11    1      -0.7479370117E+02      0.7500708178E+02      0.1415911144E+04      0.7607839150E-03

    ------------------------------------------------
       NWT REQUIRED            4 OUTER ITERATIONS 
       AND A TOTAL OF         30 INNER ITERATIONS.
    ------------------------------------------------

 NO OUTPUT CONTROL FOR STRESS PERIOD   32   TIME STEP    3

 INTERPOLATION FOR HEAD OBS# 8347, ID 3016-32-94   CHANGED BECAUSE AT LEAST ONE
 NEIGHBORING CELL REQUIRED FOR INTERPOLATION IS DRY OR INACTIVE (OBS2BAS7SE)

 INTERPOLATION FOR HEAD OBS# 8348, ID 3055-32-94   CHANGED BECAUSE AT LEAST ONE
 NEIGHBORING CELL REQUIRED FOR INTERPOLATION IS DRY OR INACTIVE (OBS2BAS7SE)

 INTERPOLATION FOR HEAD OBS# 8354, ID 2869-32-96   CHANGED BECAUSE AT LEAST ONE
 NEIGHBORING CELL REQUIRED FOR INTERPOLATION IS DRY OR INACTIVE (OBS2BAS7SE)
 
 SOLVING FOR HEAD 
                                                   Max.-Head-Change                        Max.-Flux-Residual
  Residual-Control   Outer-Iter.   Inner-Iter.     Column Row Layer    Max.-Head-Change    Column Row Layer    Max.-Flux-Residual            L2-New               L2-Old           Solver-Max-Delh
          0                 1          11            22   40     2      -0.3684284743E+01      62   86    1      -0.7111801161E+05      0.5298319385E+06      0.7500708178E+02     -0.3684284743E+01
          0                 2           9            72   57     3       0.3028484810E+00      20   13    2       0.8208542979E+04      0.5506285560E+05      0.5298319385E+06      0.3028484810E+00
          0                 3           6            22   10     1       0.1231935836E-01      17   11    1       0.5837670678E+03      0.7589069431E+03      0.5506285560E+05      0.1231935836E-01
          0                 4           3            91   77     2      -0.9392071429E-04      22   10    1       0.3420656323E+00      0.6464619603E+00      0.7589069431E+03     -0.9392071429E-04

    ------------------------------------------------
       NWT REQUIRED            4 OUTER ITERATIONS 
       AND A TOTAL OF         29 INNER ITERATIONS.
    ------------------------------------------------

 NO OUTPUT CONTROL FOR STRESS PERIOD   32   TIME STEP    4
 
 SOLVING FOR HEAD 
                                                   Max.-Head-Change                        Max.-Flux-Residual
  Residual-Control   Outer-Iter.   Inner-Iter.     Column Row Layer    Max.-Head-Change    Column Row Layer    Max.-Flux-Residual            L2-New               L2-Old           Solver-Max-Delh
          0                 1          11            72   57     3      -0.2339995713E+01      62   86    1      -0.5776431683E+05      0.5087029184E+06      0.6464619603E+00     -0.2339995713E+01
          0                 2           9            20    3     1      -0.4866530477E+00      62   86    1       0.5636686930E+04      0.5160079957E+05      0.5087029184E+06     -0.4866530477E+00
          0                 3           6            20    3     1       0.4289562291E-01      24   16    1       0.5027446175E+03      0.7155767082E+03      0.5160079957E+05      0.4289562291E-01
          0                 4           3            20    3     1       0.1183363008E-03      22    9    1      -0.4064211920E+01      0.4267475291E+01      0.7155767082E+03      0.1183363008E-03

    ------------------------------------------------
       NWT REQUIRED            4 OUTER ITERATIONS 
       AND A TOTAL OF         29 INNER ITERATIONS.
    ------------------------------------------------

 NO OUTPUT CONTROL FOR STRESS PERIOD   32   TIME STEP    5
 
 SOLVING FOR HEAD 
                                                   Max.-Head-Change                        Max.-Flux-Residual
  Residual-Control   Outer-Iter.   Inner-Iter.     Column Row Layer    Max.-Head-Change    Column Row Layer    Max.-Flux-Residual            L2-New               L2-Old           Solver-Max-Delh
          0                 1          11            55   97     3       0.2200200071E+01      81   46    1       0.5358694579E+05      0.4940477948E+06      0.4267475291E+01      0.2200200071E+01
          0                 2           9            56   35     1      -0.9225658172E+00      22    9    1      -0.6264537488E+04      0.5048825031E+05      0.4940477948E+06     -0.9225658172E+00
          0                 3           6            56   35     1       0.7585901096E-01      22    9    1       0.6175088881E+03      0.1069382290E+04      0.5048825031E+05      0.7585901096E-01
          0                 4           3            56   35     1       0.6586031543E-03      56   35    1       0.2962576555E+01      0.3481884856E+01      0.1069382290E+04      0.6586031543E-03

    ------------------------------------------------
       NWT REQUIRED            4 OUTER ITERATIONS 
       AND A TOTAL OF         29 INNER ITERATIONS.
    ------------------------------------------------

 NO OUTPUT CONTROL FOR STRESS PERIOD   32   TIME STEP    6
 
 SOLVING FOR HEAD 
                                                   Max.-Head-Change                        Max.-Flux-Residual
  Residual-Control   Outer-Iter.   Inner-Iter.     Column Row Layer    Max.-Head-Change    Column Row Layer    Max.-Flux-Residual            L2-New               L2-Old           Solver-Max-Delh
          0                 1          11            55   97     3       0.2160383397E+01      81   46    1       0.5194329098E+05      0.4831561810E+06      0.3481884856E+01      0.2160383397E+01
          0                 2           9            90   67     2       0.5351060816E+00      85   62    1      -0.5306636934E+04      0.4921239654E+05      0.4831561810E+06      0.5351060816E+00
          0                 3           5            90   67     2      -0.4864249994E-01      90   67    2      -0.4948294222E+03      0.5608027460E+03      0.4921239654E+05     -0.4864249994E-01
          0                 4           3            13   83     1      -0.2597737543E-03      13   83    1      -0.1229318604E+02      0.1231131782E+02      0.5608027460E+03     -0.2597737543E-03

    ------------------------------------------------
       NWT REQUIRED            4 OUTER ITERATIONS 
       AND A TOTAL OF         28 INNER ITERATIONS.
    ------------------------------------------------

 NO OUTPUT CONTROL FOR STRESS PERIOD   32   TIME STEP    7
 
 SOLVING FOR HEAD 
                                                   Max.-Head-Change                        Max.-Flux-Residual
  Residual-Control   Outer-Iter.   Inner-Iter.     Column Row Layer    Max.-Head-Change    Column Row Layer    Max.-Flux-Residual            L2-New               L2-Old           Solver-Max-Delh
          0                 1          11            55   97     3       0.2120383277E+01      81   46    1       0.5033976232E+05      0.4745424185E+06      0.1231131782E+02      0.2120383277E+01
          0                 2           9            55   97     3      -0.1908598355E+00      81   46    1      -0.5038914837E+04      0.4775391030E+05      0.4745424185E+06     -0.1908598355E+00
          0                 3           5            13   83     1       0.3819525905E-02      13   83    1       0.6220082105E+02      0.6969166577E+02      0.4775391030E+05      0.3819525905E-02

    ------------------------------------------------
       NWT REQUIRED            3 OUTER ITERATIONS 
       AND A TOTAL OF         25 INNER ITERATIONS.
    ------------------------------------------------

 NO OUTPUT CONTROL FOR STRESS PERIOD   32   TIME STEP    8
 
 SOLVING FOR HEAD 
                                                   Max.-Head-Change                        Max.-Flux-Residual
  Residual-Control   Outer-Iter.   Inner-Iter.     Column Row Layer    Max.-Head-Change    Column Row Layer    Max.-Flux-Residual            L2-New               L2-Old           Solver-Max-Delh
          0                 1          11            55   97     3       0.2080262885E+01      81   46    1       0.4878058672E+05      0.4673012913E+06      0.6969166577E+02      0.2080262885E+01
          0                 2           9            78   56     1      -0.1599305506E+01      78   56    1      -0.5705206180E+04      0.4723154733E+05      0.4673012913E+06     -0.1599305506E+01
          0                 3           6            78   56     1       0.1306423229E+00      78   56    1       0.5134043009E+03      0.6423224821E+03      0.4723154733E+05      0.1306423229E+00
          0                 4           3            78   56     1       0.1196389863E-02      78   56    1       0.4614191912E+01      0.4724847737E+01      0.6423224821E+03      0.1196389863E-02

    ------------------------------------------------
       NWT REQUIRED            4 OUTER ITERATIONS 
       AND A TOTAL OF         29 INNER ITERATIONS.
    ------------------------------------------------

 NO OUTPUT CONTROL FOR STRESS PERIOD   32   TIME STEP    9
 
 SOLVING FOR HEAD 
                                                   Max.-Head-Change                        Max.-Flux-Residual
  Residual-Control   Outer-Iter.   Inner-Iter.     Column Row Layer    Max.-Head-Change    Column Row Layer    Max.-Flux-Residual            L2-New               L2-Old           Solver-Max-Delh
          0                 1          11            55   97     3       0.2040083980E+01      81   46    1       0.4726570939E+05      0.4611316694E+06      0.4724847737E+01      0.2040083980E+01
          0                 2           9            14   24     2      -0.7178431695E+00      81   46    1      -0.4730920421E+04      0.4675097476E+05      0.4611316694E+06     -0.7178431695E+00
          0                 3           6            14   24     2       0.8239435063E-01      14   24    2       0.5605758463E+03      0.7875029946E+03      0.4675097476E+05      0.8239435063E-01
          0                 4           4            14   24     2       0.3500734142E-03      15   24    2      -0.1070183365E+02      0.1114573135E+02      0.7875029946E+03      0.3500734142E-03

    ------------------------------------------------
       NWT REQUIRED            4 OUTER ITERATIONS 
       AND A TOTAL OF         30 INNER ITERATIONS.
    ------------------------------------------------

 NO OUTPUT CONTROL FOR STRESS PERIOD   32   TIME STEP   10
 
 SOLVING FOR HEAD 
                                                   Max.-Head-Change                        Max.-Flux-Residual
  Residual-Control   Outer-Iter.   Inner-Iter.     Column Row Layer    Max.-Head-Change    Column Row Layer    Max.-Flux-Residual            L2-New               L2-Old           Solver-Max-Delh
          0                 1          11            55   97     3       0.1999907617E+01      81   46    1       0.4579482046E+05      0.4557996898E+06      0.1114573135E+02      0.1999907617E+01
          0                 2           9            55   97     3      -0.1799897915E+00      32   31    2       0.4665207263E+04      0.4630680348E+05      0.4557996898E+06     -0.1799897915E+00
          0                 3           6            35   54     2       0.1468793474E-01      31   29    2       0.3061037004E+03      0.4322716258E+03      0.4630680348E+05      0.1468793474E-01
          0                 4           3            91   77     2      -0.7349108757E-04      35   54    2       0.4092131779E+00      0.4582919829E+00      0.4322716258E+03     -0.7349108757E-04

    ------------------------------------------------
       NWT REQUIRED            4 OUTER ITERATIONS 
       AND A TOTAL OF         29 INNER ITERATIONS.
    ------------------------------------------------

 NO OUTPUT CONTROL FOR STRESS PERIOD   32   TIME STEP   11
 
 SOLVING FOR HEAD 
                                                   Max.-Head-Change                        Max.-Flux-Residual
  Residual-Control   Outer-Iter.   Inner-Iter.     Column Row Layer    Max.-Head-Change    Column Row Layer    Max.-Flux-Residual            L2-New               L2-Old           Solver-Max-Delh
          0                 1          11            55   97     3       0.1959793581E+01      81   46    1       0.4436752249E+05      0.4510149403E+06      0.4582919829E+00      0.1959793581E+01
          0                 2           9            61   88     2       0.2565548016E+00      61   88    2       0.1550727855E+05      0.4830602105E+05      0.4510149403E+06      0.2565548016E+00
          0                 3           5            20    8     1       0.1232627723E-01      20    8    1       0.3493643048E+03      0.3715865490E+03      0.4830602105E+05      0.1232627723E-01
          0                 4           2            91   77     2      -0.7076571928E-04      61   88    1      -0.3496543616E+00      0.5246630773E+00      0.3715865490E+03     -0.7076571928E-04

    ------------------------------------------------
       NWT REQUIRED            4 OUTER ITERATIONS 
       AND A TOTAL OF         27 INNER ITERATIONS.
    ------------------------------------------------

 OUTPUT CONTROL FOR STRESS PERIOD   32   TIME STEP   12
    SAVE BUDGET
 UBDSV1 SAVING "         STORAGE" ON UNIT  39 AT TIME STEP 12, STRESS PERIOD  32
 UBDSV2 SAVING "   CONSTANT HEAD" ON UNIT  39 AT TIME STEP 12, STRESS PERIOD  32
 UBDSV1 SAVING "FLOW RIGHT FACE " ON UNIT  39 AT TIME STEP 12, STRESS PERIOD  32
 UBDSV1 SAVING "FLOW FRONT FACE " ON UNIT  39 AT TIME STEP 12, STRESS PERIOD  32
 UBDSV1 SAVING "FLOW LOWER FACE " ON UNIT  39 AT TIME STEP 12, STRESS PERIOD  32
 UBDSV4 SAVING "           WELLS" ON UNIT  39 AT TIME STEP 12, STRESS PERIOD  32
 UBDSV3 SAVING "              ET" ON UNIT  39 AT TIME STEP 12, STRESS PERIOD  32
 UBDSV3 SAVING "        RECHARGE" ON UNIT  39 AT TIME STEP 12, STRESS PERIOD  32
1
  VOLUMETRIC BUDGET FOR ENTIRE MODEL AT END OF TIME STEP   12, STRESS PERIOD  32
  ------------------------------------------------------------------------------

     CUMULATIVE VOLUMES      L**3       RATES FOR THIS TIME STEP      L**3/T
     ------------------                 ------------------------

           IN:                                      IN:
           ---                                      ---
             STORAGE     =199505379328.0000               STORAGE     =    22192356.0000
       CONSTANT HEAD     = 16030690304.0000         CONSTANT HEAD     =     1914480.1250
               WELLS     = 14325233664.0000                 WELLS     =     1225525.0000
                  ET     =           0.0000                    ET     =           0.0000
            RECHARGE     =195453550592.0000              RECHARGE     =    23609482.0000

                TOTAL IN =425314877440.0000                  TOTAL IN =    48941840.0000

          OUT:                                     OUT:
          ----                                     ----
             STORAGE     = 24483217408.0000               STORAGE     =     1668361.6250
       CONSTANT HEAD     = 41853894656.0000         CONSTANT HEAD     =     3374781.7500
               WELLS     =347802894336.0000                 WELLS     =    43260604.0000
                  ET     = 11174170624.0000                    ET     =      638099.8125
            RECHARGE     =           0.0000              RECHARGE     =           0.0000

               TOTAL OUT =425314189312.0000                 TOTAL OUT =    48941848.0000

                IN - OUT =      688128.0000                  IN - OUT =          -8.0000

     PERCENT DISCREPANCY =           0.00         PERCENT DISCREPANCY =          -0.00






         TIME SUMMARY AT END OF TIME STEP   12 IN STRESS PERIOD   32
                    SECONDS     MINUTES      HOURS       DAYS        YEARS
                    -----------------------------------------------------------
   TIME STEP LENGTH 2.62800E+06  43800.      730.00      30.417     8.32763E-02
 STRESS PERIOD TIME 3.15360E+07 5.25600E+05  8760.0      365.00     0.99932    
         TOTAL TIME 1.00984E+09 1.68307E+07 2.80512E+05  11688.      32.000    
1
1
                            STRESS PERIOD NO.   33, LENGTH =   366.0000    
                            -----------------------------------------------

                              NUMBER OF TIME STEPS =    12

                               MULTIPLIER FOR DELT =     1.000

                            INITIAL TIME STEP SIZE =   30.50000    

   1693 WELLS

 REUSING SURF FROM LAST STRESS PERIOD

 REUSING EVTR FROM LAST STRESS PERIOD

 REUSING EXDP FROM LAST STRESS PERIOD



                           RECHARGE
 READING ON UNIT   16 WITH FORMAT: (15F5.0)            


     63 TIME-VARIANT SPECIFIED-HEAD CELLS
 
 SOLVING FOR HEAD 
                                                   Max.-Head-Change                        Max.-Flux-Residual
  Residual-Control   Outer-Iter.   Inner-Iter.     Column Row Layer    Max.-Head-Change    Column Row Layer    Max.-Flux-Residual            L2-New               L2-Old           Solver-Max-Delh
          0                 1          11            61   96     3      -0.7542573188E+02      61   96    3      -0.3405144077E+06      0.9989470204E+06      0.5246630773E+00     -0.7542573188E+02
          0                 2          10            51  103     3       0.2052759595E+02      51  103    3       0.5002396693E+06      0.5131158613E+06      0.9989470204E+06      0.2052759595E+02
          0                 3           6            85   62     1       0.7989295254E+00      51  103    3      -0.2084900116E+04      0.3817397475E+04      0.5131158613E+06      0.7989295254E+00
          0                 4           5            85   62     1       0.2210310723E-01      51  103    3      -0.1832295735E+03      0.2553992965E+03      0.3817397475E+04      0.2210310723E-01
          0                 5           4            85   62     1       0.6094943087E-03      51  103    3      -0.1647258064E+02      0.2296936280E+02      0.2553992965E+03      0.6094943087E-03

    ------------------------------------------------
       NWT REQUIRED            5 OUTER ITERATIONS 
       AND A TOTAL OF         36 INNER ITERATIONS.
    ------------------------------------------------

 NO OUTPUT CONTROL FOR STRESS PERIOD   33   TIME STEP    1
 
 SOLVING FOR HEAD 
                                                   Max.-Head-Change                        Max.-Flux-Residual
  Residual-Control   Outer-Iter.   Inner-Iter.     Column Row Layer    Max.-Head-Change    Column Row Layer    Max.-Flux-Residual            L2-New               L2-Old           Solver-Max-Delh
          0                 1          11            69   63     3       0.7440343539E+01      58   71    1      -0.1020822821E+06      0.6667774406E+06      0.2296936280E+02      0.7440343539E+01
          0                 2           9            65    4     2      -0.4494819213E+01      57  103    2      -0.1807875970E+05      0.7243800849E+05      0.6667774406E+06     -0.4494819213E+01
          0                 3           6            65    4     2       0.1442028217E+00      58  100    3       0.2679105180E+04      0.2814191127E+04      0.7243800849E+05      0.1442028217E+00
          0                 4           4            65    4     2       0.8456066596E-02      58  100    3       0.2617113021E+03      0.2633828998E+03      0.2814191127E+04      0.8456066596E-02

    ------------------------------------------------
       NWT REQUIRED            4 OUTER ITERATIONS 
       AND A TOTAL OF         30 INNER ITERATIONS.
    ------------------------------------------------

 NO OUTPUT CONTROL FOR STRESS PERIOD   33   TIME STEP    2
 
 SOLVING FOR HEAD 
                                                   Max.-Head-Change                        Max.-Flux-Residual
  Residual-Control   Outer-Iter.   Inner-Iter.     Column Row Layer    Max.-Head-Change    Column Row Layer    Max.-Flux-Residual            L2-New               L2-Old           Solver-Max-Delh
          0                 1          11            53  106     3       0.4936441441E+01      58   71    1      -0.7805688834E+05      0.6050803858E+06      0.2633828998E+03      0.4936441441E+01
          0                 2           9            92   77     2      -0.7103891449E+02      92   77    2      -0.2259581780E+05      0.6602084363E+05      0.6050803858E+06     -0.7103891449E+02
          0                 3           6            92   77     2       0.5978394262E+01      92   77    2       0.4136596170E+04      0.6113882966E+04      0.6602084363E+05      0.5978394262E+01
          0                 4           3            92   77     2       0.2485155676E+00      92   77    2       0.1706534675E+03      0.2414027356E+03      0.6113882966E+04      0.2485155676E+00
          0                 5           2            92   77     2       0.1014528647E-01      92   76    2      -0.7888079623E+01      0.1275204432E+02      0.2414027356E+03      0.1014528647E-01
          0                 6           2            92   77     2       0.4128752984E-03      92   77    3       0.9501985386E+00      0.1068737890E+01      0.1275204432E+02      0.4128752984E-03

    ------------------------------------------------
       NWT REQUIRED            6 OUTER ITERATIONS 
       AND A TOTAL OF         33 INNER ITERATIONS.
    ------------------------------------------------

 NO OUTPUT CONTROL FOR STRESS PERIOD   33   TIME STEP    3
 
 SOLVING FOR HEAD 
                                                   Max.-Head-Change                        Max.-Flux-Residual
  Residual-Control   Outer-Iter.   Inner-Iter.     Column Row Layer    Max.-Head-Change    Column Row Layer    Max.-Flux-Residual            L2-New               L2-Old           Solver-Max-Delh
          0                 1          10            92   77     2      -0.1562688566E+02      53  106    3       0.7227006291E+05      0.5736154930E+06      0.1068737890E+01     -0.1562688566E+02
          0                 2           9            92   77     2       0.6553474109E+00      17   12    2       0.1125407736E+05      0.6005678617E+05      0.5736154930E+06      0.6553474109E+00
          0                 3           6            92   77     2       0.2649856664E-01      21   14    2       0.3570249368E+03      0.4031140935E+03      0.6005678617E+05      0.2649856664E-01
          0                 4           2            92   77     2       0.1088476114E-02      92   77    2       0.7296389512E+00      0.8288930011E+00      0.4031140935E+03      0.1088476114E-02

    ------------------------------------------------
       NWT REQUIRED            4 OUTER ITERATIONS 
       AND A TOTAL OF         27 INNER ITERATIONS.
    ------------------------------------------------

 NO OUTPUT CONTROL FOR STRESS PERIOD   33   TIME STEP    4

 INTERPOLATION FOR HEAD OBS# 7769, ID 164-33-152   CHANGED BECAUSE AT LEAST ONE
 NEIGHBORING CELL REQUIRED FOR INTERPOLATION IS DRY OR INACTIVE (OBS2BAS7SE)
 
 SOLVING FOR HEAD 
                                                   Max.-Head-Change                        Max.-Flux-Residual
  Residual-Control   Outer-Iter.   Inner-Iter.     Column Row Layer    Max.-Head-Change    Column Row Layer    Max.-Flux-Residual            L2-New               L2-Old           Solver-Max-Delh
          0                 1          10            53  106     3       0.4342611041E+01      53  106    3       0.6779366405E+05      0.5540721909E+06      0.8288930011E+00      0.4342611041E+01
          0                 2           9            30   45     2      -0.9346512003E+00      21   14    2       0.8301577385E+04      0.5686485648E+05      0.5540721909E+06     -0.9346512003E+00
          0                 3           6            30   45     2       0.7283239055E-01      20   14    1       0.5904057441E+03      0.1016063664E+04      0.5686485648E+05      0.7283239055E-01
          0                 4           3            30   45     1       0.9325175902E-03      30   45    1       0.1530223846E+01      0.2408400896E+01      0.1016063664E+04      0.9325175902E-03

    ------------------------------------------------
       NWT REQUIRED            4 OUTER ITERATIONS 
       AND A TOTAL OF         28 INNER ITERATIONS.
    ------------------------------------------------

 NO OUTPUT CONTROL FOR STRESS PERIOD   33   TIME STEP    5
 
 SOLVING FOR HEAD 
                                                   Max.-Head-Change                        Max.-Flux-Residual
  Residual-Control   Outer-Iter.   Inner-Iter.     Column Row Layer    Max.-Head-Change    Column Row Layer    Max.-Flux-Residual            L2-New               L2-Old           Solver-Max-Delh
          0                 1          10            53  106     3       0.4073212518E+01      53  106    3       0.6358682573E+05      0.5398368279E+06      0.2408400896E+01      0.4073212518E+01
          0                 2           9            53  106     3      -0.3715080238E+00      61   85    2       0.9843830785E+04      0.5540545929E+05      0.5398368279E+06     -0.3715080238E+00
          0                 3           6            34   27     1      -0.1999185116E-01      34   27    1      -0.1717197310E+04      0.1939499967E+04      0.5540545929E+05     -0.1999185116E-01
          0                 4           5            34   27     1      -0.1801468571E-02      34   27    1      -0.1546963448E+03      0.1569275773E+03      0.1939499967E+04     -0.1801468571E-02

    ------------------------------------------------
       NWT REQUIRED            4 OUTER ITERATIONS 
       AND A TOTAL OF         30 INNER ITERATIONS.
    ------------------------------------------------

 NO OUTPUT CONTROL FOR STRESS PERIOD   33   TIME STEP    6
 
 SOLVING FOR HEAD 
                                                   Max.-Head-Change                        Max.-Flux-Residual
  Residual-Control   Outer-Iter.   Inner-Iter.     Column Row Layer    Max.-Head-Change    Column Row Layer    Max.-Flux-Residual            L2-New               L2-Old           Solver-Max-Delh
          0                 1          10            53  106     3       0.3821533899E+01      53  106    3       0.5964662516E+05      0.5290458997E+06      0.1569275773E+03      0.3821533899E+01
          0                 2           9            53  106     3      -0.3484733433E+00      15   11    1      -0.1121959376E+05      0.5534915397E+05      0.5290458997E+06     -0.3484733433E+00
          0                 3           6            34   27     1       0.2060468039E-01      15   11    1       0.1111094152E+04      0.1498394449E+04      0.5534915397E+05      0.2060468039E-01
          0                 4           3            92   77     2       0.6566871589E-04      34   27    1       0.9090127945E+00      0.1186572861E+01      0.1498394449E+04      0.6566871589E-04

    ------------------------------------------------
       NWT REQUIRED            4 OUTER ITERATIONS 
       AND A TOTAL OF         28 INNER ITERATIONS.
    ------------------------------------------------

 NO OUTPUT CONTROL FOR STRESS PERIOD   33   TIME STEP    7
 
 SOLVING FOR HEAD 
                                                   Max.-Head-Change                        Max.-Flux-Residual
  Residual-Control   Outer-Iter.   Inner-Iter.     Column Row Layer    Max.-Head-Change    Column Row Layer    Max.-Flux-Residual            L2-New               L2-Old           Solver-Max-Delh
          0                 1          10            23   45     2      -0.4813888910E+01      55   97    3       0.5606596136E+05      0.5201019518E+06      0.1186572861E+01     -0.4813888910E+01
          0                 2           9            88   67     1      -0.1231028775E+02      88   67    1      -0.1492350502E+05      0.5508239770E+05      0.5201019518E+06     -0.1231028775E+02
          0                 3           5            88   67     1       0.7554214010E+00      88   67    2      -0.1249074228E+04      0.1675919357E+04      0.5508239770E+05      0.7554214010E+00
          0                 4           3            88   67     1       0.2223305037E-01      88   67    1       0.2962016695E+02      0.3005844550E+02      0.1675919357E+04      0.2223305037E-01
          0                 5           2            88   67     1       0.6522432255E-03      88   67    2       0.2238821290E+01      0.2419639335E+01      0.3005844550E+02      0.6522432255E-03

    ------------------------------------------------
       NWT REQUIRED            5 OUTER ITERATIONS 
       AND A TOTAL OF         29 INNER ITERATIONS.
    ------------------------------------------------

 NO OUTPUT CONTROL FOR STRESS PERIOD   33   TIME STEP    8
 
 SOLVING FOR HEAD 
                                                   Max.-Head-Change                        Max.-Flux-Residual
  Residual-Control   Outer-Iter.   Inner-Iter.     Column Row Layer    Max.-Head-Change    Column Row Layer    Max.-Flux-Residual            L2-New               L2-Old           Solver-Max-Delh
          0                 1          10            53  106     3       0.3368249368E+01      55   97    3       0.5475189706E+05      0.5123587857E+06      0.2419639335E+01      0.3368249368E+01
          0                 2           9            87   63     1      -0.9676903081E+00      61   89    2       0.1914168896E+05      0.5502675482E+05      0.5123587857E+06     -0.9676903081E+00
          0                 3           6            61   89     1      -0.1167553751E+00      61   89    1      -0.8884348120E+04      0.8944791884E+04      0.5502675482E+05     -0.1167553751E+00
          0                 4           4            61   89     1      -0.1055748824E-01      61   89    1      -0.8026251577E+03      0.8054521080E+03      0.8944791884E+04     -0.1055748824E-01
          0                 5           3            61   89     1      -0.9496252967E-03      61   89    1      -0.7218078843E+02      0.7242898559E+02      0.8054521080E+03     -0.9496252967E-03

    ------------------------------------------------
       NWT REQUIRED            5 OUTER ITERATIONS 
       AND A TOTAL OF         32 INNER ITERATIONS.
    ------------------------------------------------

 NO OUTPUT CONTROL FOR STRESS PERIOD   33   TIME STEP    9
 
 SOLVING FOR HEAD 
                                                   Max.-Head-Change                        Max.-Flux-Residual
  Residual-Control   Outer-Iter.   Inner-Iter.     Column Row Layer    Max.-Head-Change    Column Row Layer    Max.-Flux-Residual            L2-New               L2-Old           Solver-Max-Delh
          0                 1          10            53  106     3       0.3164863517E+01      55   97    3       0.5344854366E+05      0.5055792756E+06      0.7242898559E+02      0.3164863517E+01
          0                 2           9            60  117     1      -0.5616941011E+00      53  116    2       0.1735450657E+05      0.5875997029E+05      0.5055792756E+06     -0.5616941011E+00
          0                 3           6            60  117     1       0.4794787706E-01      60   63    2       0.1254144663E+04      0.1981156461E+04      0.5875997029E+05      0.4794787706E-01
          0                 4           3            60  117     1       0.2657787988E-03      61   89    1       0.1452373683E+01      0.2563945863E+01      0.1981156461E+04      0.2657787988E-03

    ------------------------------------------------
       NWT REQUIRED            4 OUTER ITERATIONS 
       AND A TOTAL OF         28 INNER ITERATIONS.
    ------------------------------------------------

 NO OUTPUT CONTROL FOR STRESS PERIOD   33   TIME STEP   10

 INTERPOLATION FOR HEAD OBS#  251, ID 3260-33-313  CHANGED BECAUSE AT LEAST ONE
 NEIGHBORING CELL REQUIRED FOR INTERPOLATION IS DRY OR INACTIVE (OBS2BAS7SE)
 
 SOLVING FOR HEAD 
                                                   Max.-Head-Change                        Max.-Flux-Residual
  Residual-Control   Outer-Iter.   Inner-Iter.     Column Row Layer    Max.-Head-Change    Column Row Layer    Max.-Flux-Residual            L2-New               L2-Old           Solver-Max-Delh
          0                 1          10            53  106     3       0.2969762064E+01      55   97    3       0.5215797019E+05      0.5001404369E+06      0.2563945863E+01      0.2969762064E+01
          0                 2           9            53  116     1      -0.3434077499E+00      60   63    2       0.2716500047E+05      0.6028739904E+05      0.5001404369E+06     -0.3434077499E+00
          0                 3           6            53  116     1       0.3074980995E-01      53  116    1       0.7620918165E+03      0.1027906697E+04      0.6028739904E+05      0.3074980995E-01
          0                 4           3            55  100     2       0.8079475062E-04      55  100    3       0.2089559491E+01      0.2335016909E+01      0.1027906697E+04      0.8079475062E-04

    ------------------------------------------------
       NWT REQUIRED            4 OUTER ITERATIONS 
       AND A TOTAL OF         28 INNER ITERATIONS.
    ------------------------------------------------

 NO OUTPUT CONTROL FOR STRESS PERIOD   33   TIME STEP   11
 
 SOLVING FOR HEAD 
                                                   Max.-Head-Change                        Max.-Flux-Residual
  Residual-Control   Outer-Iter.   Inner-Iter.     Column Row Layer    Max.-Head-Change    Column Row Layer    Max.-Flux-Residual            L2-New               L2-Old           Solver-Max-Delh
          0                 1          10            53  106     3       0.2789386747E+01      55   97    3       0.5088211091E+05      0.4946525280E+06      0.2335016909E+01      0.2789386747E+01
          0                 2           9            14   21     2      -0.2374922225E+01      19   14    2       0.6769743902E+04      0.5054455577E+05      0.4946525280E+06     -0.2374922225E+01
          0                 3           7            14   21     2       0.2737894307E+00      14   21    2       0.9778994393E+03      0.1622284292E+04      0.5054455577E+05      0.2737894307E+00
          0                 4           5            14   21     2       0.2142461005E-02      19   14    1      -0.6878077179E+02      0.7597588797E+02      0.1622284292E+04      0.2142461005E-02

    ------------------------------------------------
       NWT REQUIRED            4 OUTER ITERATIONS 
       AND A TOTAL OF         31 INNER ITERATIONS.
    ------------------------------------------------

 OUTPUT CONTROL FOR STRESS PERIOD   33   TIME STEP   12
    SAVE BUDGET
 UBDSV1 SAVING "         STORAGE" ON UNIT  39 AT TIME STEP 12, STRESS PERIOD  33
 UBDSV2 SAVING "   CONSTANT HEAD" ON UNIT  39 AT TIME STEP 12, STRESS PERIOD  33
 UBDSV1 SAVING "FLOW RIGHT FACE " ON UNIT  39 AT TIME STEP 12, STRESS PERIOD  33
 UBDSV1 SAVING "FLOW FRONT FACE " ON UNIT  39 AT TIME STEP 12, STRESS PERIOD  33
 UBDSV1 SAVING "FLOW LOWER FACE " ON UNIT  39 AT TIME STEP 12, STRESS PERIOD  33
 UBDSV4 SAVING "           WELLS" ON UNIT  39 AT TIME STEP 12, STRESS PERIOD  33
 UBDSV3 SAVING "              ET" ON UNIT  39 AT TIME STEP 12, STRESS PERIOD  33
 UBDSV3 SAVING "        RECHARGE" ON UNIT  39 AT TIME STEP 12, STRESS PERIOD  33
1
  VOLUMETRIC BUDGET FOR ENTIRE MODEL AT END OF TIME STEP   12, STRESS PERIOD  33
  ------------------------------------------------------------------------------

     CUMULATIVE VOLUMES      L**3       RATES FOR THIS TIME STEP      L**3/T
     ------------------                 ------------------------

           IN:                                      IN:
           ---                                      ---
             STORAGE     =208658038784.0000               STORAGE     =    24469890.0000
       CONSTANT HEAD     = 16774946816.0000         CONSTANT HEAD     =     2100312.7500
               WELLS     = 14773770240.0000                 WELLS     =     1225525.0000
                  ET     =           0.0000                    ET     =           0.0000
            RECHARGE     =203259871232.0000              RECHARGE     =    21328528.0000

                TOTAL IN =443466645504.0000                  TOTAL IN =    49124256.0000

          OUT:                                     OUT:
          ----                                     ----
             STORAGE     = 25197649920.0000               STORAGE     =     1481917.8750
       CONSTANT HEAD     = 43092590592.0000         CONSTANT HEAD     =     3386538.5000
               WELLS     =363770216448.0000                 WELLS     =    43626540.0000
                  ET     = 11405437952.0000                    ET     =      629274.3750
            RECHARGE     =           0.0000              RECHARGE     =           0.0000

               TOTAL OUT =443465891840.0000                 TOTAL OUT =    49124272.0000

                IN - OUT =      753664.0000                  IN - OUT =         -16.0000

     PERCENT DISCREPANCY =           0.00         PERCENT DISCREPANCY =          -0.00






         TIME SUMMARY AT END OF TIME STEP   12 IN STRESS PERIOD   33
                    SECONDS     MINUTES      HOURS       DAYS        YEARS
                    -----------------------------------------------------------
   TIME STEP LENGTH 2.63520E+06  43920.      732.00      30.500     8.35044E-02
 STRESS PERIOD TIME 3.16224E+07 5.27040E+05  8784.0      366.00      1.0021    
         TOTAL TIME 1.04147E+09 1.73578E+07 2.89296E+05  12054.      33.002    
1
1
                            STRESS PERIOD NO.   34, LENGTH =   365.0000    
                            -----------------------------------------------

                              NUMBER OF TIME STEPS =    12

                               MULTIPLIER FOR DELT =     1.000

                            INITIAL TIME STEP SIZE =   30.41667    

   1755 WELLS

 REUSING SURF FROM LAST STRESS PERIOD

 REUSING EVTR FROM LAST STRESS PERIOD

 REUSING EXDP FROM LAST STRESS PERIOD



                           RECHARGE
 READING ON UNIT   16 WITH FORMAT: (15F5.0)            


     63 TIME-VARIANT SPECIFIED-HEAD CELLS
 
 SOLVING FOR HEAD 
                                                   Max.-Head-Change                        Max.-Flux-Residual
  Residual-Control   Outer-Iter.   Inner-Iter.     Column Row Layer    Max.-Head-Change    Column Row Layer    Max.-Flux-Residual            L2-New               L2-Old           Solver-Max-Delh
          0                 1          11            54  107     2       0.2923002459E+02      62   85    1       0.3125607296E+06      0.1071241527E+07      0.7597588797E+02      0.2923002459E+02
          0                 2          10            54  107     2      -0.2193120364E+01      77   64    2       0.5730638136E+05      0.1263948516E+06      0.1071241527E+07     -0.2193120364E+01
          0                 3           6            54  107     2      -0.3561837968E-01      24   21    1       0.8609003882E+03      0.1342773696E+04      0.1263948516E+06     -0.3561837968E-01
          0                 4           4            65    2     2       0.6820456175E-03      62  104    2      -0.4270430584E+01      0.6458345003E+01      0.1342773696E+04      0.6820456175E-03

    ------------------------------------------------
       NWT REQUIRED            4 OUTER ITERATIONS 
       AND A TOTAL OF         31 INNER ITERATIONS.
    ------------------------------------------------

 NO OUTPUT CONTROL FOR STRESS PERIOD   34   TIME STEP    1
 
 SOLVING FOR HEAD 
                                                   Max.-Head-Change                        Max.-Flux-Residual
  Residual-Control   Outer-Iter.   Inner-Iter.     Column Row Layer    Max.-Head-Change    Column Row Layer    Max.-Flux-Residual            L2-New               L2-Old           Solver-Max-Delh
          0                 1          10            59   85     3      -0.5718784166E+01      62   85    1       0.1981496392E+06      0.6977751864E+06      0.6458345003E+01     -0.5718784166E+01
          0                 2           9            59   85     3       0.5110895449E+00      62   85    1      -0.2022962333E+05      0.7110562719E+05      0.6977751864E+06      0.5110895449E+00
          0                 3           6            61   85     1       0.3850414774E-01      62   85    1      -0.7789227651E+03      0.1476412216E+04      0.7110562719E+05      0.3850414774E-01
          0                 4           3            61   85     1       0.3537758209E-02      61   85    1       0.7153587054E+02      0.7202960126E+02      0.1476412216E+04      0.3537758209E-02

    ------------------------------------------------
       NWT REQUIRED            4 OUTER ITERATIONS 
       AND A TOTAL OF         28 INNER ITERATIONS.
    ------------------------------------------------

 NO OUTPUT CONTROL FOR STRESS PERIOD   34   TIME STEP    2
 
 SOLVING FOR HEAD 
                                                   Max.-Head-Change                        Max.-Flux-Residual
  Residual-Control   Outer-Iter.   Inner-Iter.     Column Row Layer    Max.-Head-Change    Column Row Layer    Max.-Flux-Residual            L2-New               L2-Old           Solver-Max-Delh
          0                 1          10            53  106     3       0.5042302342E+01      62   85    1       0.1198416169E+06      0.6091267192E+06      0.7202960126E+02      0.5042302342E+01
          0                 2           9            80   56     1      -0.3441596389E+01      62   85    1      -0.1830078849E+05      0.6468152310E+05      0.6091267192E+06     -0.3441596389E+01
          0                 3           6            80   56     1       0.2769700798E+00      35   29    1      -0.1750903572E+04      0.1963526811E+04      0.6468152310E+05      0.2769700798E+00
          0                 4           5            35   29     1      -0.3021394881E-02      35   29    1      -0.1577438841E+03      0.1580306112E+03      0.1963526811E+04     -0.3021394881E-02

    ------------------------------------------------
       NWT REQUIRED            4 OUTER ITERATIONS 
       AND A TOTAL OF         30 INNER ITERATIONS.
    ------------------------------------------------

 NO OUTPUT CONTROL FOR STRESS PERIOD   34   TIME STEP    3
 
 SOLVING FOR HEAD 
                                                   Max.-Head-Change                        Max.-Flux-Residual
  Residual-Control   Outer-Iter.   Inner-Iter.     Column Row Layer    Max.-Head-Change    Column Row Layer    Max.-Flux-Residual            L2-New               L2-Old           Solver-Max-Delh
          0                 1          10            53  106     3       0.4703558845E+01      53  106    3       0.7406837359E+05      0.5644837724E+06      0.1580306112E+03      0.4703558845E+01
          0                 2           9            54  107     2      -0.2629648243E+01      54  107    2      -0.9012632730E+05      0.1091725418E+06      0.5644837724E+06     -0.2629648243E+01
          0                 3           6            35   29     1       0.3367724571E-01      35   29    1       0.5015786374E+03      0.6161735018E+03      0.1091725418E+06      0.3367724571E-01
          0                 4           3            54  106     2       0.2237279843E-02      55  107    2       0.9370855791E+01      0.1361892220E+02      0.6161735018E+03      0.2237279843E-02

    ------------------------------------------------
       NWT REQUIRED            4 OUTER ITERATIONS 
       AND A TOTAL OF         28 INNER ITERATIONS.
    ------------------------------------------------

 NO OUTPUT CONTROL FOR STRESS PERIOD   34   TIME STEP    4

 INTERPOLATION FOR HEAD OBS# 5328, ID 1735-34-152  CHANGED BECAUSE AT LEAST ONE
 NEIGHBORING CELL REQUIRED FOR INTERPOLATION IS DRY OR INACTIVE (OBS2BAS7SE)
 
 SOLVING FOR HEAD 
                                                   Max.-Head-Change                        Max.-Flux-Residual
  Residual-Control   Outer-Iter.   Inner-Iter.     Column Row Layer    Max.-Head-Change    Column Row Layer    Max.-Flux-Residual            L2-New               L2-Old           Solver-Max-Delh
          0                 1          10            53  106     3       0.4383148752E+01      53  106    3       0.6907769340E+05      0.5367325731E+06      0.1361892220E+02      0.4383148752E+01
          0                 2           9            53  106     3      -0.4075344740E+00      19   18    1      -0.1196033114E+05      0.5618913967E+05      0.5367325731E+06     -0.4075344740E+00
          0                 3           6            49  118     2      -0.1535041592E+00      49  118    2      -0.5519879445E+04      0.5662537922E+04      0.5618913967E+05     -0.1535041592E+00
          0                 4           4            49  118     2      -0.1383437280E-01      49  118    2      -0.4973163389E+03      0.4973267053E+03      0.5662537922E+04     -0.1383437280E-01
          0                 5           3            49  118     2      -0.1243989655E-02      49  118    2      -0.4471305480E+02      0.4471411237E+02      0.4973267053E+03     -0.1243989655E-02

    ------------------------------------------------
       NWT REQUIRED            5 OUTER ITERATIONS 
       AND A TOTAL OF         32 INNER ITERATIONS.
    ------------------------------------------------

 NO OUTPUT CONTROL FOR STRESS PERIOD   34   TIME STEP    5
 
 SOLVING FOR HEAD 
                                                   Max.-Head-Change                        Max.-Flux-Residual
  Residual-Control   Outer-Iter.   Inner-Iter.     Column Row Layer    Max.-Head-Change    Column Row Layer    Max.-Flux-Residual            L2-New               L2-Old           Solver-Max-Delh
          0                 1          10            53  106     3       0.4010672077E+01      53  106    3       0.6427285466E+05      0.5173911279E+06      0.4471411237E+02      0.4010672077E+01
          0                 2           9            49  118     2      -0.2090867397E+01      19   72    2      -0.1137800923E+05      0.5469833011E+05      0.5173911279E+06     -0.2090867397E+01
          0                 3           5            49  118     2       0.1669809981E+00      49  118    2       0.4645270464E+03      0.6082244103E+03      0.5469833011E+05      0.1669809981E+00
          0                 4           3            49  118     2       0.1817808148E-02      49  118    2       0.4994922612E+01      0.5161852853E+01      0.6082244103E+03      0.1817808148E-02

    ------------------------------------------------
       NWT REQUIRED            4 OUTER ITERATIONS 
       AND A TOTAL OF         27 INNER ITERATIONS.
    ------------------------------------------------

 NO OUTPUT CONTROL FOR STRESS PERIOD   34   TIME STEP    6

 INTERPOLATION FOR HEAD OBS# 3606, ID 1370-34-198  CHANGED BECAUSE AT LEAST ONE
 NEIGHBORING CELL REQUIRED FOR INTERPOLATION IS DRY OR INACTIVE (OBS2BAS7SE)
 
 SOLVING FOR HEAD 
                                                   Max.-Head-Change                        Max.-Flux-Residual
  Residual-Control   Outer-Iter.   Inner-Iter.     Column Row Layer    Max.-Head-Change    Column Row Layer    Max.-Flux-Residual            L2-New               L2-Old           Solver-Max-Delh
          0                 1          10            53  106     3       0.3686420229E+01      53  106    3       0.5892242203E+05      0.5028882812E+06      0.5161852853E+01      0.3686420229E+01
          0                 2           9            23   44     2      -0.1937709455E+01      20   16    1      -0.6776940803E+04      0.5136473877E+05      0.5028882812E+06     -0.1937709455E+01
          0                 3           6            23   44     2       0.1551437285E+00      56   50    1      -0.1666032619E+04      0.1896591228E+04      0.5136473877E+05      0.1551437285E+00
          0                 4           4            56   50     1      -0.2308647896E-02      56   50    1      -0.1500000450E+03      0.1500914215E+03      0.1896591228E+04     -0.2308647896E-02

    ------------------------------------------------
       NWT REQUIRED            4 OUTER ITERATIONS 
       AND A TOTAL OF         29 INNER ITERATIONS.
    ------------------------------------------------

 NO OUTPUT CONTROL FOR STRESS PERIOD   34   TIME STEP    7
 
 SOLVING FOR HEAD 
                                                   Max.-Head-Change                        Max.-Flux-Residual
  Residual-Control   Outer-Iter.   Inner-Iter.     Column Row Layer    Max.-Head-Change    Column Row Layer    Max.-Flux-Residual            L2-New               L2-Old           Solver-Max-Delh
          0                 1          10            23   44     2      -0.8445000730E+01      53  106    3       0.5416951538E+05      0.4913429784E+06      0.1500914215E+03     -0.8445000730E+01
          0                 2           9            54  106     2      -0.1767005243E+01      54  106    2      -0.5864878188E+05      0.7717421160E+05      0.4913429784E+06     -0.1767005243E+01
          0                 3           6            56   50     1       0.8859282219E-02      16   11    1       0.6296670572E+03      0.7617226150E+03      0.7717421160E+05      0.8859282219E-02

    ------------------------------------------------
       NWT REQUIRED            3 OUTER ITERATIONS 
       AND A TOTAL OF         25 INNER ITERATIONS.
    ------------------------------------------------

 NO OUTPUT CONTROL FOR STRESS PERIOD   34   TIME STEP    8
 
 SOLVING FOR HEAD 
                                                   Max.-Head-Change                        Max.-Flux-Residual
  Residual-Control   Outer-Iter.   Inner-Iter.     Column Row Layer    Max.-Head-Change    Column Row Layer    Max.-Flux-Residual            L2-New               L2-Old           Solver-Max-Delh
          0                 1          10            53  106     3       0.3120137221E+01      91   67    2       0.4995877272E+05      0.4821834006E+06      0.7617226150E+03      0.3120137221E+01
          0                 2           9            30    7     2      -0.7927410519E+00      89   65    1      -0.1975581825E+05      0.5406706049E+05      0.4821834006E+06     -0.7927410519E+00
          0                 3           6            30    7     2       0.6938020924E-01      20   15    1      -0.1698995635E+04      0.2082410489E+04      0.5406706049E+05      0.6938020924E-01
          0                 4           5            20   15     1      -0.1459488994E-02      20   15    1      -0.1529619761E+03      0.1530139237E+03      0.2082410489E+04     -0.1459488994E-02

    ------------------------------------------------
       NWT REQUIRED            4 OUTER ITERATIONS 
       AND A TOTAL OF         30 INNER ITERATIONS.
    ------------------------------------------------

 NO OUTPUT CONTROL FOR STRESS PERIOD   34   TIME STEP    9
 
 SOLVING FOR HEAD 
                                                   Max.-Head-Change                        Max.-Flux-Residual
  Residual-Control   Outer-Iter.   Inner-Iter.     Column Row Layer    Max.-Head-Change    Column Row Layer    Max.-Flux-Residual            L2-New               L2-Old           Solver-Max-Delh
          0                 1          10            53  106     3       0.2878467469E+01      91   67    2       0.4806633835E+05      0.4743233297E+06      0.1530139237E+03      0.2878467469E+01
          0                 2           9            19   33     2      -0.1609253806E+01      18   13    2       0.1240195216E+05      0.5268801406E+05      0.4743233297E+06     -0.1609253806E+01
          0                 3           6            19   33     2       0.1220984598E+00      60   64    1      -0.6727562957E+04      0.6863831410E+04      0.5268801406E+05      0.1220984598E+00
          0                 4           6            19   33     2       0.1624379130E-01      60   64    1      -0.6065167354E+03      0.6120484650E+03      0.6863831410E+04      0.1624379130E-01
          0                 5           4            60   64     1      -0.5784652536E-03      60   64    1      -0.5453431833E+02      0.5496060109E+02      0.6120484650E+03     -0.5784652536E-03

    ------------------------------------------------
       NWT REQUIRED            5 OUTER ITERATIONS 
       AND A TOTAL OF         35 INNER ITERATIONS.
    ------------------------------------------------

 NO OUTPUT CONTROL FOR STRESS PERIOD   34   TIME STEP   10
 
 SOLVING FOR HEAD 
                                                   Max.-Head-Change                        Max.-Flux-Residual
  Residual-Control   Outer-Iter.   Inner-Iter.     Column Row Layer    Max.-Head-Change    Column Row Layer    Max.-Flux-Residual            L2-New               L2-Old           Solver-Max-Delh
          0                 1          10            23   41     2      -0.4061819136E+01      53  105    3       0.4652871769E+05      0.4675464690E+06      0.5496060109E+02     -0.4061819136E+01
          0                 2           9            14   22     2      -0.1459567535E+01      61   92    2       0.2496370850E+05      0.5460280087E+05      0.4675464690E+06     -0.1459567535E+01
          0                 3           6            14   22     2       0.1379389197E+00      60   64    1       0.8370771787E+03      0.1294552699E+04      0.5460280087E+05      0.1379389197E+00
          0                 4           4            14   22     2       0.1087242484E-02      15   22    2      -0.5084733061E+01      0.6559575913E+01      0.1294552699E+04      0.1087242484E-02

    ------------------------------------------------
       NWT REQUIRED            4 OUTER ITERATIONS 
       AND A TOTAL OF         29 INNER ITERATIONS.
    ------------------------------------------------

 NO OUTPUT CONTROL FOR STRESS PERIOD   34   TIME STEP   11
 
 SOLVING FOR HEAD 
                                                   Max.-Head-Change                        Max.-Flux-Residual
  Residual-Control   Outer-Iter.   Inner-Iter.     Column Row Layer    Max.-Head-Change    Column Row Layer    Max.-Flux-Residual            L2-New               L2-Old           Solver-Max-Delh
          0                 1          10            53  106     3       0.2471806314E+01      53  105    3       0.4565727201E+05      0.4608542286E+06      0.6559575913E+01      0.2471806314E+01
          0                 2           9            53  106     3      -0.2252864870E+00      22   15    2       0.9328455849E+04      0.4768993906E+05      0.4608542286E+06     -0.2252864870E+00
          0                 3           6            62   59     1      -0.4000305305E-01      62   59    1      -0.1847095721E+04      0.2326530454E+04      0.4768993906E+05     -0.4000305305E-01
          0                 4           4            62   59     1      -0.3604138246E-02      62   59    1      -0.1663612126E+03      0.2014625120E+03      0.2326530454E+04     -0.3604138246E-02

    ------------------------------------------------
       NWT REQUIRED            4 OUTER ITERATIONS 
       AND A TOTAL OF         29 INNER ITERATIONS.
    ------------------------------------------------

 OUTPUT CONTROL FOR STRESS PERIOD   34   TIME STEP   12
    SAVE BUDGET
 UBDSV1 SAVING "         STORAGE" ON UNIT  39 AT TIME STEP 12, STRESS PERIOD  34
 UBDSV2 SAVING "   CONSTANT HEAD" ON UNIT  39 AT TIME STEP 12, STRESS PERIOD  34
 UBDSV1 SAVING "FLOW RIGHT FACE " ON UNIT  39 AT TIME STEP 12, STRESS PERIOD  34
 UBDSV1 SAVING "FLOW FRONT FACE " ON UNIT  39 AT TIME STEP 12, STRESS PERIOD  34
 UBDSV1 SAVING "FLOW LOWER FACE " ON UNIT  39 AT TIME STEP 12, STRESS PERIOD  34
 UBDSV4 SAVING "           WELLS" ON UNIT  39 AT TIME STEP 12, STRESS PERIOD  34
 UBDSV3 SAVING "              ET" ON UNIT  39 AT TIME STEP 12, STRESS PERIOD  34
 UBDSV3 SAVING "        RECHARGE" ON UNIT  39 AT TIME STEP 12, STRESS PERIOD  34

 INTERPOLATION FOR HEAD OBS# 1832, ID 1988-35-4    CHANGED BECAUSE AT LEAST ONE
 NEIGHBORING CELL REQUIRED FOR INTERPOLATION IS DRY OR INACTIVE (OBS2BAS7SE)
1
  VOLUMETRIC BUDGET FOR ENTIRE MODEL AT END OF TIME STEP   12, STRESS PERIOD  34
  ------------------------------------------------------------------------------

     CUMULATIVE VOLUMES      L**3       RATES FOR THIS TIME STEP      L**3/T
     ------------------                 ------------------------

           IN:                                      IN:
           ---                                      ---
             STORAGE     =217488244736.0000               STORAGE     =    23387562.0000
       CONSTANT HEAD     = 17545158656.0000         CONSTANT HEAD     =     2123754.0000
               WELLS     = 15221090304.0000                 WELLS     =     1225525.0000
                  ET     =           0.0000                    ET     =           0.0000
            RECHARGE     =211372703744.0000              RECHARGE     =    22226804.0000

                TOTAL IN =461627195392.0000                  TOTAL IN =    48963644.0000

          OUT:                                     OUT:
          ----                                     ----
             STORAGE     = 26050531328.0000               STORAGE     =     1581955.6250
       CONSTANT HEAD     = 44276547584.0000         CONSTANT HEAD     =     3175106.2500
               WELLS     =379646312448.0000                 WELLS     =    43495704.0000
                  ET     = 11653175296.0000                    ET     =      710904.2500
            RECHARGE     =           0.0000              RECHARGE     =           0.0000

               TOTAL OUT =461626572800.0000                 TOTAL OUT =    48963672.0000

                IN - OUT =      622592.0000                  IN - OUT =         -28.0000

     PERCENT DISCREPANCY =           0.00         PERCENT DISCREPANCY =          -0.00






         TIME SUMMARY AT END OF TIME STEP   12 IN STRESS PERIOD   34
                    SECONDS     MINUTES      HOURS       DAYS        YEARS
                    -----------------------------------------------------------
   TIME STEP LENGTH 2.62800E+06  43800.      730.00      30.417     8.32763E-02
 STRESS PERIOD TIME 3.15360E+07 5.25600E+05  8760.0      365.00     0.99932    
         TOTAL TIME 1.07300E+09 1.78834E+07 2.98056E+05  12419.      34.001    
1
1
                            STRESS PERIOD NO.   35, LENGTH =   365.0000    
                            -----------------------------------------------

                              NUMBER OF TIME STEPS =    12

                               MULTIPLIER FOR DELT =     1.000

                            INITIAL TIME STEP SIZE =   30.41667    

   1773 WELLS

 REUSING SURF FROM LAST STRESS PERIOD

 REUSING EVTR FROM LAST STRESS PERIOD

 REUSING EXDP FROM LAST STRESS PERIOD



                           RECHARGE
 READING ON UNIT   16 WITH FORMAT: (15F5.0)            


     63 TIME-VARIANT SPECIFIED-HEAD CELLS
 
 SOLVING FOR HEAD 
                                                   Max.-Head-Change                        Max.-Flux-Residual
  Residual-Control   Outer-Iter.   Inner-Iter.     Column Row Layer    Max.-Head-Change    Column Row Layer    Max.-Flux-Residual            L2-New               L2-Old           Solver-Max-Delh
          0                 1          11            62   87     3      -0.5200617696E+02      62   87    3      -0.2274211967E+06      0.1028470458E+07      0.2014625120E+03     -0.5200617696E+02
          0                 2          10            91   67     1      -0.1046093000E+02      23   44    2      -0.1292537145E+06      0.1734672663E+06      0.1028470458E+07     -0.1046093000E+02
          0                 3           8            91   67     1       0.8745374114E+00      91   67    2      -0.5955623994E+04      0.1134857126E+05      0.1734672663E+06      0.8745374114E+00
          0                 4           6            22   44     2       0.6333935073E-01      24   18    1      -0.4011837683E+03      0.4469236767E+03      0.1134857126E+05      0.6333935073E-01
          0                 5           5            22   44     2       0.6296657318E-02      24   18    1      -0.3606997482E+02      0.4126098945E+02      0.4469236767E+03      0.6296657318E-02

    ------------------------------------------------
       NWT REQUIRED            5 OUTER ITERATIONS 
       AND A TOTAL OF         40 INNER ITERATIONS.
    ------------------------------------------------

 NO OUTPUT CONTROL FOR STRESS PERIOD   35   TIME STEP    1
 
 SOLVING FOR HEAD 
                                                   Max.-Head-Change                        Max.-Flux-Residual
  Residual-Control   Outer-Iter.   Inner-Iter.     Column Row Layer    Max.-Head-Change    Column Row Layer    Max.-Flux-Residual            L2-New               L2-Old           Solver-Max-Delh
          0                 1          11            62   87     3      -0.4965488762E+01      58   85    3       0.9905650624E+05      0.6635336766E+06      0.4126098945E+02     -0.4965488762E+01
          0                 2           9            23   46     2      -0.1342901953E+02      23   46    2      -0.2812112398E+05      0.7671614593E+05      0.6635336766E+06     -0.1342901953E+02
          0                 3           7            23   46     2       0.1306468519E+01      23   46    2       0.3137975274E+04      0.5366270362E+04      0.7671614593E+05      0.1306468519E+01
          0                 4           5            23   46     2       0.9664982915E-02      59  100    1      -0.5704042112E+03      0.7996082095E+03      0.5366270362E+04      0.9664982915E-02

    ------------------------------------------------
       NWT REQUIRED            4 OUTER ITERATIONS 
       AND A TOTAL OF         32 INNER ITERATIONS.
    ------------------------------------------------

 NO OUTPUT CONTROL FOR STRESS PERIOD   35   TIME STEP    2
 
 SOLVING FOR HEAD 
                                                   Max.-Head-Change                        Max.-Flux-Residual
  Residual-Control   Outer-Iter.   Inner-Iter.     Column Row Layer    Max.-Head-Change    Column Row Layer    Max.-Flux-Residual            L2-New               L2-Old           Solver-Max-Delh
          0                 1          11            23   46     2      -0.1013477461E+02      58   85    3       0.7487352217E+05      0.5973775237E+06      0.7996082095E+03     -0.1013477461E+02
          0                 2           9            24   47     2      -0.3081250324E+01      60   62    2       0.9321164534E+04      0.6111568613E+05      0.5973775237E+06     -0.3081250324E+01
          0                 3           6            24   47     2       0.2479451074E+00      24   47    2       0.8686549019E+03      0.9453977831E+03      0.6111568613E+05      0.2479451074E+00
          0                 4           4            24   47     1       0.3043439054E-02      24   47    1       0.5147229552E+01      0.8451347664E+01      0.9453977831E+03      0.3043439054E-02

    ------------------------------------------------
       NWT REQUIRED            4 OUTER ITERATIONS 
       AND A TOTAL OF         30 INNER ITERATIONS.
    ------------------------------------------------

 NO OUTPUT CONTROL FOR STRESS PERIOD   35   TIME STEP    3
 
 SOLVING FOR HEAD 
                                                   Max.-Head-Change                        Max.-Flux-Residual
  Residual-Control   Outer-Iter.   Inner-Iter.     Column Row Layer    Max.-Head-Change    Column Row Layer    Max.-Flux-Residual            L2-New               L2-Old           Solver-Max-Delh
          0                 1          10            24   47     2      -0.2306914798E+01      58   85    3       0.5718544834E+05      0.5667156898E+06      0.8451347664E+01     -0.2306914798E+01
          0                 2           9            77   64     1      -0.1161513067E+01      20   17    2       0.6779533429E+04      0.5747373262E+05      0.5667156898E+06     -0.1161513067E+01
          0                 3           5            77   64     1       0.8569043108E-01      20   17    1      -0.2603164534E+03      0.4498630426E+03      0.5747373262E+05      0.8569043108E-01
          0                 4           3            77   64     1       0.1473370403E-02      20   17    1      -0.2343047529E+02      0.2362759594E+02      0.4498630426E+03      0.1473370403E-02

    ------------------------------------------------
       NWT REQUIRED            4 OUTER ITERATIONS 
       AND A TOTAL OF         27 INNER ITERATIONS.
    ------------------------------------------------

 NO OUTPUT CONTROL FOR STRESS PERIOD   35   TIME STEP    4
 
 SOLVING FOR HEAD 
                                                   Max.-Head-Change                        Max.-Flux-Residual
  Residual-Control   Outer-Iter.   Inner-Iter.     Column Row Layer    Max.-Head-Change    Column Row Layer    Max.-Flux-Residual            L2-New               L2-Old           Solver-Max-Delh
          0                 1          10            78   57     1      -0.2504631325E+01      89   66    1      -0.5041285006E+05      0.5480343708E+06      0.2362759594E+02     -0.2504631325E+01
          0                 2           9            24   48     2      -0.2971080037E+01      24   48    2      -0.1047981621E+05      0.5691369220E+05      0.5480343708E+06     -0.2971080037E+01
          0                 3           7            24   48     2       0.2394138195E+00      78   55    1      -0.6613481330E+04      0.6784581504E+04      0.5691369220E+05      0.2394138195E+00
          0                 4           4            78   55     1      -0.1426700011E-01      78   55    1      -0.5964363966E+03      0.5965917646E+03      0.6784581504E+04     -0.1426700011E-01
          0                 5           3            78   55     1      -0.1283030172E-02      78   55    1      -0.5362962251E+02      0.5363994908E+02      0.5965917646E+03     -0.1283030172E-02

    ------------------------------------------------
       NWT REQUIRED            5 OUTER ITERATIONS 
       AND A TOTAL OF         33 INNER ITERATIONS.
    ------------------------------------------------

 NO OUTPUT CONTROL FOR STRESS PERIOD   35   TIME STEP    5
 
 SOLVING FOR HEAD 
                                                   Max.-Head-Change                        Max.-Flux-Residual
  Residual-Control   Outer-Iter.   Inner-Iter.     Column Row Layer    Max.-Head-Change    Column Row Layer    Max.-Flux-Residual            L2-New               L2-Old           Solver-Max-Delh
          0                 1          10            24   48     2      -0.3086776141E+01      89   66    1      -0.4642347585E+05      0.5351718694E+06      0.5363994908E+02     -0.3086776141E+01
          0                 2           9            78   55     1      -0.3645943152E+01      26   16    2       0.1245207968E+05      0.5775822042E+05      0.5351718694E+06     -0.3645943152E+01
          0                 3           6            78   55     1       0.5566428096E+00      78   55    1       0.2096997615E+04      0.2638520064E+04      0.5775822042E+05      0.5566428096E+00
          0                 4           4            78   55     1       0.5309597146E-02      78   54    1      -0.7501715483E+02      0.9251718726E+02      0.2638520064E+04      0.5309597146E-02

    ------------------------------------------------
       NWT REQUIRED            4 OUTER ITERATIONS 
       AND A TOTAL OF         29 INNER ITERATIONS.
    ------------------------------------------------

 NO OUTPUT CONTROL FOR STRESS PERIOD   35   TIME STEP    6
 
 SOLVING FOR HEAD 
                                                   Max.-Head-Change                        Max.-Flux-Residual
  Residual-Control   Outer-Iter.   Inner-Iter.     Column Row Layer    Max.-Head-Change    Column Row Layer    Max.-Flux-Residual            L2-New               L2-Old           Solver-Max-Delh
          0                 1          10            53  105     3       0.1705110032E+01      89   66    1      -0.4286460173E+05      0.5255030738E+06      0.9251718726E+02      0.1705110032E+01
          0                 2           9            24   46     1      -0.4982270466E+00      42   32    1      -0.1400560748E+05      0.5574584788E+05      0.5255030738E+06     -0.4982270466E+00
          0                 3           6            24   46     2       0.3834858388E-01      42   32    1       0.1368719202E+04      0.1924775180E+04      0.5574584788E+05      0.3834858388E-01
          0                 4           3            59   87     1       0.5991931971E-03      59   87    2       0.4406855684E+01      0.6608180719E+01      0.1924775180E+04      0.5991931971E-03

    ------------------------------------------------
       NWT REQUIRED            4 OUTER ITERATIONS 
       AND A TOTAL OF         28 INNER ITERATIONS.
    ------------------------------------------------

 NO OUTPUT CONTROL FOR STRESS PERIOD   35   TIME STEP    7
 
 SOLVING FOR HEAD 
                                                   Max.-Head-Change                        Max.-Flux-Residual
  Residual-Control   Outer-Iter.   Inner-Iter.     Column Row Layer    Max.-Head-Change    Column Row Layer    Max.-Flux-Residual            L2-New               L2-Old           Solver-Max-Delh
          0                 1          10            24   46     2      -0.3418834165E+01      88   65    1      -0.4084350232E+05      0.5177973374E+06      0.6608180719E+01     -0.3418834165E+01
          0                 2           9            61   94     2       0.3504469767E+00      61   94    2       0.2497061863E+05      0.6144476933E+05      0.5177973374E+06      0.3504469767E+00
          0                 3           6            23   18     1      -0.2312173089E-01      23   18    1      -0.2299289088E+04      0.2670076250E+04      0.6144476933E+05     -0.2312173089E-01
          0                 4           5            23   18     1      -0.2082355612E-02      23   18    1      -0.2070429716E+03      0.2092113154E+03      0.2670076250E+04     -0.2082355612E-02

    ------------------------------------------------
       NWT REQUIRED            4 OUTER ITERATIONS 
       AND A TOTAL OF         30 INNER ITERATIONS.
    ------------------------------------------------

 NO OUTPUT CONTROL FOR STRESS PERIOD   35   TIME STEP    8
 
 SOLVING FOR HEAD 
                                                   Max.-Head-Change                        Max.-Flux-Residual
  Residual-Control   Outer-Iter.   Inner-Iter.     Column Row Layer    Max.-Head-Change    Column Row Layer    Max.-Flux-Residual            L2-New               L2-Old           Solver-Max-Delh
          0                 1          10            53  105     3       0.1591500975E+01      88   65    1      -0.3924209638E+05      0.5116886053E+06      0.2092113154E+03      0.1591500975E+01
          0                 2           9            61   94     1      -0.4844643036E+00      61   94    1      -0.1559545072E+05      0.5486424162E+05      0.5116886053E+06     -0.4844643036E+00
          0                 3           6            61   94     1       0.4343150296E-01      61   94    1       0.1535601523E+04      0.1900643851E+04      0.5486424162E+05      0.4343150296E-01
          0                 4           3            85   85     2      -0.5388058769E-04      61   94    1       0.1759168088E+01      0.2002713139E+01      0.1900643851E+04     -0.5388058769E-04

    ------------------------------------------------
       NWT REQUIRED            4 OUTER ITERATIONS 
       AND A TOTAL OF         28 INNER ITERATIONS.
    ------------------------------------------------

 NO OUTPUT CONTROL FOR STRESS PERIOD   35   TIME STEP    9
 
 SOLVING FOR HEAD 
                                                   Max.-Head-Change                        Max.-Flux-Residual
  Residual-Control   Outer-Iter.   Inner-Iter.     Column Row Layer    Max.-Head-Change    Column Row Layer    Max.-Flux-Residual            L2-New               L2-Old           Solver-Max-Delh
          0                 1          10            53  105     3       0.1537312351E+01      88   65    1      -0.3774476777E+05      0.5070697379E+06      0.2002713139E+01      0.1537312351E+01
          0                 2           9            24   44     2      -0.4369110668E+01      61   91    2       0.9043347182E+04      0.5215767568E+05      0.5070697379E+06     -0.4369110668E+01
          0                 3           7            24   44     2       0.1716923632E+01      24   44    2       0.3821681963E+04      0.5134830223E+04      0.5215767568E+05      0.1716923632E+01
          0                 4           6            24   44     1       0.3329586351E-01      25   44    2      -0.1886105023E+03      0.1964994552E+03      0.5134830223E+04      0.3329586351E-01
          0                 5           3            25   44     1      -0.6477536490E-03      25   44    2      -0.1469648085E+02      0.1479053563E+02      0.1964994552E+03     -0.6477536490E-03

    ------------------------------------------------
       NWT REQUIRED            5 OUTER ITERATIONS 
       AND A TOTAL OF         35 INNER ITERATIONS.
    ------------------------------------------------

 NO OUTPUT CONTROL FOR STRESS PERIOD   35   TIME STEP   10
 
 SOLVING FOR HEAD 
                                                   Max.-Head-Change                        Max.-Flux-Residual
  Residual-Control   Outer-Iter.   Inner-Iter.     Column Row Layer    Max.-Head-Change    Column Row Layer    Max.-Flux-Residual            L2-New               L2-Old           Solver-Max-Delh
          0                 1          10            53  105     3       0.1484971627E+01      88   65    1      -0.3634233257E+05      0.5024528338E+06      0.1479053563E+02      0.1484971627E+01
          0                 2           9            73   15     2      -0.6194986892E+00      61   93    2       0.2155055229E+05      0.5594898680E+05      0.5024528338E+06     -0.6194986892E+00
          0                 3           6            61   93     1      -0.1164495388E+00      61   93    1      -0.9762479520E+04      0.9810025047E+04      0.5594898680E+05     -0.1164495388E+00
          0                 4           4            61   93     1      -0.1050329014E-01      61   93    1      -0.8801119649E+03      0.8807222298E+03      0.9810025047E+04     -0.1050329014E-01
          0                 5           3            61   93     1      -0.9445305111E-03      61   93    1      -0.7913361505E+02      0.7917792197E+02      0.8807222298E+03     -0.9445305111E-03

    ------------------------------------------------
       NWT REQUIRED            5 OUTER ITERATIONS 
       AND A TOTAL OF         32 INNER ITERATIONS.
    ------------------------------------------------

 NO OUTPUT CONTROL FOR STRESS PERIOD   35   TIME STEP   11
 
 SOLVING FOR HEAD 
                                                   Max.-Head-Change                        Max.-Flux-Residual
  Residual-Control   Outer-Iter.   Inner-Iter.     Column Row Layer    Max.-Head-Change    Column Row Layer    Max.-Flux-Residual            L2-New               L2-Old           Solver-Max-Delh
          0                 1          10            53  105     3       0.1434510578E+01      88   65    1      -0.3502665640E+05      0.4979989100E+06      0.7917792197E+02      0.1434510578E+01
          0                 2           9            61   93     1      -0.3081098812E+00      61   93    1      -0.1131800869E+05      0.5133798016E+05      0.4979989100E+06     -0.3081098812E+00
          0                 3           6            61   93     1       0.2763949120E-01      17   14    1      -0.1807708690E+04      0.2161796865E+04      0.5133798016E+05      0.2763949120E-01
          0                 4           5            17   14     1      -0.1262525492E-02      17   14    1      -0.1627739625E+03      0.1629346707E+03      0.2161796865E+04     -0.1262525492E-02

    ------------------------------------------------
       NWT REQUIRED            4 OUTER ITERATIONS 
       AND A TOTAL OF         30 INNER ITERATIONS.
    ------------------------------------------------

 OUTPUT CONTROL FOR STRESS PERIOD   35   TIME STEP   12
    SAVE BUDGET
 UBDSV1 SAVING "         STORAGE" ON UNIT  39 AT TIME STEP 12, STRESS PERIOD  35
 UBDSV2 SAVING "   CONSTANT HEAD" ON UNIT  39 AT TIME STEP 12, STRESS PERIOD  35
 UBDSV1 SAVING "FLOW RIGHT FACE " ON UNIT  39 AT TIME STEP 12, STRESS PERIOD  35
 UBDSV1 SAVING "FLOW FRONT FACE " ON UNIT  39 AT TIME STEP 12, STRESS PERIOD  35
 UBDSV1 SAVING "FLOW LOWER FACE " ON UNIT  39 AT TIME STEP 12, STRESS PERIOD  35
 UBDSV4 SAVING "           WELLS" ON UNIT  39 AT TIME STEP 12, STRESS PERIOD  35
 UBDSV3 SAVING "              ET" ON UNIT  39 AT TIME STEP 12, STRESS PERIOD  35
 UBDSV3 SAVING "        RECHARGE" ON UNIT  39 AT TIME STEP 12, STRESS PERIOD  35
1
  VOLUMETRIC BUDGET FOR ENTIRE MODEL AT END OF TIME STEP   12, STRESS PERIOD  35
  ------------------------------------------------------------------------------

     CUMULATIVE VOLUMES      L**3       RATES FOR THIS TIME STEP      L**3/T
     ------------------                 ------------------------

           IN:                                      IN:
           ---                                      ---
             STORAGE     =227439198208.0000               STORAGE     =    26764926.0000
       CONSTANT HEAD     = 18329413632.0000         CONSTANT HEAD     =     2172373.7500
               WELLS     = 15668410368.0000                 WELLS     =     1225525.0000
                  ET     =           0.0000                    ET     =           0.0000
            RECHARGE     =218452361216.0000              RECHARGE     =    19396166.0000

                TOTAL IN =479889391616.0000                  TOTAL IN =    49558992.0000

          OUT:                                     OUT:
          ----                                     ----
             STORAGE     = 26464225280.0000               STORAGE     =      774350.6250
       CONSTANT HEAD     = 45412208640.0000         CONSTANT HEAD     =     3072913.2500
               WELLS     =396160598016.0000                 WELLS     =    45244956.0000
                  ET     = 11851565056.0000                    ET     =      466789.1562
            RECHARGE     =           0.0000              RECHARGE     =           0.0000

               TOTAL OUT =479888605184.0000                 TOTAL OUT =    49559008.0000

                IN - OUT =      786432.0000                  IN - OUT =         -16.0000

     PERCENT DISCREPANCY =           0.00         PERCENT DISCREPANCY =          -0.00






         TIME SUMMARY AT END OF TIME STEP   12 IN STRESS PERIOD   35
                    SECONDS     MINUTES      HOURS       DAYS        YEARS
                    -----------------------------------------------------------
   TIME STEP LENGTH 2.62800E+06  43800.      730.00      30.417     8.32763E-02
 STRESS PERIOD TIME 3.15360E+07 5.25600E+05  8760.0      365.00     0.99932    
         TOTAL TIME 1.10454E+09 1.84090E+07 3.06817E+05  12784.      35.001    
1
1
                            STRESS PERIOD NO.   36, LENGTH =   365.0000    
                            -----------------------------------------------

                              NUMBER OF TIME STEPS =    12

                               MULTIPLIER FOR DELT =     1.000

                            INITIAL TIME STEP SIZE =   30.41667    

   1822 WELLS

 REUSING SURF FROM LAST STRESS PERIOD

 REUSING EVTR FROM LAST STRESS PERIOD

 REUSING EXDP FROM LAST STRESS PERIOD



                           RECHARGE
 READING ON UNIT   16 WITH FORMAT: (15F5.0)            


     63 TIME-VARIANT SPECIFIED-HEAD CELLS
 
 SOLVING FOR HEAD 
                                                   Max.-Head-Change                        Max.-Flux-Residual
  Residual-Control   Outer-Iter.   Inner-Iter.     Column Row Layer    Max.-Head-Change    Column Row Layer    Max.-Flux-Residual            L2-New               L2-Old           Solver-Max-Delh
          0                 1          11            63   96     3      -0.1353683108E+03      61   96    3       0.5276828134E+06      0.1556380130E+07      0.1629346707E+03     -0.1353683108E+03
          0                 2          10            23   46     2      -0.1179242683E+02      23   46    2      -0.2978743262E+06      0.4291296904E+06      0.1556380130E+07     -0.1179242683E+02
          0                 3           8            23   45     2       0.1804040551E+01      23   46    2      -0.1785295216E+05      0.2061828713E+05      0.4291296904E+06      0.1804040551E+01
          0                 4           7            23   45     2       0.2119501263E+00      23   47    2       0.4279401086E+03      0.9950345749E+03      0.2061828713E+05      0.2119501263E+00
          0                 5           6            23   45     2       0.2092611461E-01      23   47    2       0.3978293552E+02      0.9091557625E+02      0.9950345749E+03      0.2092611461E-01
          0                 6           4            23   45     2       0.2059967136E-02      23   45    2       0.3907009276E+01      0.8740269343E+01      0.9091557625E+02      0.2059967136E-02

    ------------------------------------------------
       NWT REQUIRED            6 OUTER ITERATIONS 
       AND A TOTAL OF         46 INNER ITERATIONS.
    ------------------------------------------------

 NO OUTPUT CONTROL FOR STRESS PERIOD   36   TIME STEP    1
 
 SOLVING FOR HEAD 
                                                   Max.-Head-Change                        Max.-Flux-Residual
  Residual-Control   Outer-Iter.   Inner-Iter.     Column Row Layer    Max.-Head-Change    Column Row Layer    Max.-Flux-Residual            L2-New               L2-Old           Solver-Max-Delh
          0                 1          10            63   96     3      -0.2447676589E+02      58  110    1      -0.2221024419E+06      0.8185319205E+06      0.8740269343E+01     -0.2447676589E+02
          0                 2           9            23   40     2      -0.1753323409E+01      19   72    3       0.3447081877E+05      0.9103571116E+05      0.8185319205E+06     -0.1753323409E+01
          0                 3           6            53  117     1      -0.2402027381E+00      53  117    1      -0.1400139542E+05      0.1402997228E+05      0.9103571116E+05     -0.2402027381E+00
          0                 4           5            53  117     1      -0.2174797233E-01      53  117    1      -0.1266052459E+04      0.1266202853E+04      0.1402997228E+05     -0.2174797233E-01
          0                 5           4            53  117     1      -0.1956424675E-02      53  117    1      -0.1138668615E+03      0.1138802229E+03      0.1266202853E+04     -0.1956424675E-02

    ------------------------------------------------
       NWT REQUIRED            5 OUTER ITERATIONS 
       AND A TOTAL OF         34 INNER ITERATIONS.
    ------------------------------------------------

 NO OUTPUT CONTROL FOR STRESS PERIOD   36   TIME STEP    2

 INTERPOLATION FOR HEAD OBS# 1739, ID 2615-36-64   CHANGED BECAUSE AT LEAST ONE
 NEIGHBORING CELL REQUIRED FOR INTERPOLATION IS DRY OR INACTIVE (OBS2BAS7SE)

 INTERPOLATION FOR HEAD OBS# 8375, ID 1428-36-91   CHANGED BECAUSE AT LEAST ONE
 NEIGHBORING CELL REQUIRED FOR INTERPOLATION IS DRY OR INACTIVE (OBS2BAS7SE)
 
 SOLVING FOR HEAD 
                                                   Max.-Head-Change                        Max.-Flux-Residual
  Residual-Control   Outer-Iter.   Inner-Iter.     Column Row Layer    Max.-Head-Change    Column Row Layer    Max.-Flux-Residual            L2-New               L2-Old           Solver-Max-Delh
          0                 1          10            64   96     3      -0.9393102971E+01      62   94    1      -0.1402706654E+06      0.6997851677E+06      0.1138802229E+03     -0.9393102971E+01
          0                 2           9            64   96     3       0.8411777858E+00      53  117    1      -0.1588845909E+05      0.7159293824E+05      0.6997851677E+06      0.8411777858E+00
          0                 3           6            53  117     1       0.6369092520E-01      53  117    1       0.1566266235E+04      0.1801948849E+04      0.7159293824E+05      0.6369092520E-01
          0                 4           4            17   13     1      -0.4621881287E-03      17   13    1      -0.6183052200E+02      0.6194632732E+02      0.1801948849E+04     -0.4621881287E-03

    ------------------------------------------------
       NWT REQUIRED            4 OUTER ITERATIONS 
       AND A TOTAL OF         29 INNER ITERATIONS.
    ------------------------------------------------

 NO OUTPUT CONTROL FOR STRESS PERIOD   36   TIME STEP    3
 
 SOLVING FOR HEAD 
                                                   Max.-Head-Change                        Max.-Flux-Residual
  Residual-Control   Outer-Iter.   Inner-Iter.     Column Row Layer    Max.-Head-Change    Column Row Layer    Max.-Flux-Residual            L2-New               L2-Old           Solver-Max-Delh
          0                 1          10            65   96     3      -0.5691872168E+01      61   95    2      -0.1296860719E+06      0.6561722005E+06      0.6194632732E+02     -0.5691872168E+01
          0                 2           9            58  119     1      -0.6238867277E+00      61   95    2       0.1284172861E+05      0.6861833906E+05      0.6561722005E+06     -0.6238867277E+00
          0                 3           6            58  119     1       0.5460081225E-01      17   13    1       0.7424086453E+03      0.1187555205E+04      0.6861833906E+05      0.5460081225E-01
          0                 4           3            24   45     1       0.7462748072E-03      58  119    1       0.1382174499E+01      0.2773305837E+01      0.1187555205E+04      0.7462748072E-03

    ------------------------------------------------
       NWT REQUIRED            4 OUTER ITERATIONS 
       AND A TOTAL OF         28 INNER ITERATIONS.
    ------------------------------------------------

 NO OUTPUT CONTROL FOR STRESS PERIOD   36   TIME STEP    4
 
 SOLVING FOR HEAD 
                                                   Max.-Head-Change                        Max.-Flux-Residual
  Residual-Control   Outer-Iter.   Inner-Iter.     Column Row Layer    Max.-Head-Change    Column Row Layer    Max.-Flux-Residual            L2-New               L2-Old           Solver-Max-Delh
          0                 1          10            65   96     3      -0.3983197676E+01      61   95    2      -0.1087129275E+06      0.6268126511E+06      0.2773305837E+01     -0.3983197676E+01
          0                 2           9            19   72     1      -0.7301871549E+00      80   57    2       0.1164519519E+05      0.6464233710E+05      0.6268126511E+06     -0.7301871549E+00
          0                 3           6            19   72     2       0.6327493586E-01      45   29    1      -0.1311331536E+04      0.2092553464E+04      0.6464233710E+05      0.6327493586E-01
          0                 4           4            52  117     1      -0.2115439256E-02      45   29    1      -0.1180447377E+03      0.1606452548E+03      0.2092553464E+04     -0.2115439256E-02

    ------------------------------------------------
       NWT REQUIRED            4 OUTER ITERATIONS 
       AND A TOTAL OF         29 INNER ITERATIONS.
    ------------------------------------------------

 NO OUTPUT CONTROL FOR STRESS PERIOD   36   TIME STEP    5

 INTERPOLATION FOR HEAD OBS# 6300, ID 773-36-156   CHANGED BECAUSE AT LEAST ONE
 NEIGHBORING CELL REQUIRED FOR INTERPOLATION IS DRY OR INACTIVE (OBS2BAS7SE)
 
 SOLVING FOR HEAD 
                                                   Max.-Head-Change                        Max.-Flux-Residual
  Residual-Control   Outer-Iter.   Inner-Iter.     Column Row Layer    Max.-Head-Change    Column Row Layer    Max.-Flux-Residual            L2-New               L2-Old           Solver-Max-Delh
          0                 1          10            62   96     3      -0.3258683246E+01      61   95    2      -0.9437280095E+05      0.6076409508E+06      0.1606452548E+03     -0.3258683246E+01
          0                 2           9            52  117     1      -0.7095791579E+00      52  117    1      -0.1109274108E+05      0.6252023671E+05      0.6076409508E+06     -0.7095791579E+00
          0                 3           6            52  117     1       0.6312935595E-01      52  117    1       0.1087730394E+04      0.1524743052E+04      0.6252023671E+05      0.6312935595E-01
          0                 4           3            52  117     1       0.1163697114E-03      52  117    1       0.1914279059E+01      0.2519566454E+01      0.1524743052E+04      0.1163697114E-03

    ------------------------------------------------
       NWT REQUIRED            4 OUTER ITERATIONS 
       AND A TOTAL OF         28 INNER ITERATIONS.
    ------------------------------------------------

 NO OUTPUT CONTROL FOR STRESS PERIOD   36   TIME STEP    6
 
 SOLVING FOR HEAD 
                                                   Max.-Head-Change                        Max.-Flux-Residual
  Residual-Control   Outer-Iter.   Inner-Iter.     Column Row Layer    Max.-Head-Change    Column Row Layer    Max.-Flux-Residual            L2-New               L2-Old           Solver-Max-Delh
          0                 1          10            62   96     3      -0.2976095430E+01      62   94    1      -0.8611403272E+05      0.5946148531E+06      0.2519566454E+01     -0.2976095430E+01
          0                 2           9            62   96     3       0.2688796998E+00      62   94    1       0.8442868348E+04      0.6021576096E+05      0.5946148531E+06      0.2688796998E+00
          0                 3           5            63   96     3       0.3595209630E-01      81   45    1       0.3688672621E+03      0.3856927943E+03      0.6021576096E+05      0.3595209630E-01
          0                 4           2            85   85     2      -0.6419218380E-04      62   94    1      -0.2009884417E+00      0.3124308437E+00      0.3856927943E+03     -0.6419218380E-04

    ------------------------------------------------
       NWT REQUIRED            4 OUTER ITERATIONS 
       AND A TOTAL OF         26 INNER ITERATIONS.
    ------------------------------------------------

 NO OUTPUT CONTROL FOR STRESS PERIOD   36   TIME STEP    7
 
 SOLVING FOR HEAD 
                                                   Max.-Head-Change                        Max.-Flux-Residual
  Residual-Control   Outer-Iter.   Inner-Iter.     Column Row Layer    Max.-Head-Change    Column Row Layer    Max.-Flux-Residual            L2-New               L2-Old           Solver-Max-Delh
          0                 1          10            62   96     3      -0.2721919156E+01      62   94    1      -0.8095800784E+05      0.5845004373E+06      0.3124308437E+00     -0.2721919156E+01
          0                 2           9            63   96     3       0.1605854822E+01      63   96    3       0.2642536055E+05      0.6514802295E+05      0.5845004373E+06      0.1605854822E+01
          0                 3           5            64   28     1       0.2949612231E-01      64   28    1       0.4641978606E+03      0.7463735502E+03      0.6514802295E+05      0.2949612231E-01
          0                 4           2            89   65     1       0.1243804244E-03      89   65    1       0.1108130980E+01      0.1717359252E+01      0.7463735502E+03      0.1243804244E-03

    ------------------------------------------------
       NWT REQUIRED            4 OUTER ITERATIONS 
       AND A TOTAL OF         26 INNER ITERATIONS.
    ------------------------------------------------

 NO OUTPUT CONTROL FOR STRESS PERIOD   36   TIME STEP    8
 
 SOLVING FOR HEAD 
                                                   Max.-Head-Change                        Max.-Flux-Residual
  Residual-Control   Outer-Iter.   Inner-Iter.     Column Row Layer    Max.-Head-Change    Column Row Layer    Max.-Flux-Residual            L2-New               L2-Old           Solver-Max-Delh
          0                 1          10            62   96     3      -0.2386938311E+01      62   94    1      -0.7595662924E+05      0.5759151714E+06      0.1717359252E+01     -0.2386938311E+01
          0                 2           9            62   96     3       0.2168014300E+00      38   25    2       0.8309485407E+04      0.5857233003E+05      0.5759151714E+06      0.2168014300E+00
          0                 3           5            71   19     2      -0.3328545586E-01      71   19    2      -0.1106225067E+04      0.1177265146E+04      0.5857233003E+05     -0.3328545586E-01
          0                 4           3            71   19     2      -0.2996449601E-02      71   19    2      -0.9957217519E+02      0.1042894972E+03      0.1177265146E+04     -0.2996449601E-02

    ------------------------------------------------
       NWT REQUIRED            4 OUTER ITERATIONS 
       AND A TOTAL OF         27 INNER ITERATIONS.
    ------------------------------------------------

 NO OUTPUT CONTROL FOR STRESS PERIOD   36   TIME STEP    9
 
 SOLVING FOR HEAD 
                                                   Max.-Head-Change                        Max.-Flux-Residual
  Residual-Control   Outer-Iter.   Inner-Iter.     Column Row Layer    Max.-Head-Change    Column Row Layer    Max.-Flux-Residual            L2-New               L2-Old           Solver-Max-Delh
          0                 1          10            62   96     3      -0.2160844025E+01      62   94    1      -0.7215982830E+05      0.5688056242E+06      0.1042894972E+03     -0.2160844025E+01
          0                 2           9            71   19     2      -0.1123056892E+01      62   94    1       0.6992374905E+04      0.5728464884E+05      0.5688056242E+06     -0.1123056892E+01
          0                 3           7            71   19     2       0.8963562481E-01      71   19    2       0.2264310715E+03      0.4084081729E+03      0.5728464884E+05      0.8963562481E-01
          0                 4           3            71   19     2       0.9952590276E-03      71   19    2       0.2489938891E+01      0.2651849679E+01      0.4084081729E+03      0.9952590276E-03

    ------------------------------------------------
       NWT REQUIRED            4 OUTER ITERATIONS 
       AND A TOTAL OF         29 INNER ITERATIONS.
    ------------------------------------------------

 NO OUTPUT CONTROL FOR STRESS PERIOD   36   TIME STEP   10
 
 SOLVING FOR HEAD 
                                                   Max.-Head-Change                        Max.-Flux-Residual
  Residual-Control   Outer-Iter.   Inner-Iter.     Column Row Layer    Max.-Head-Change    Column Row Layer    Max.-Flux-Residual            L2-New               L2-Old           Solver-Max-Delh
          0                 1          10            62   94     1      -0.2000643271E+01      62   94    1      -0.6919221609E+05      0.5628999726E+06      0.2651849679E+01     -0.2000643271E+01
          0                 2           9            36   29     1      -0.2045067862E+00      36   25    2       0.7953033662E+04      0.5739518644E+05      0.5628999726E+06     -0.2045067862E+00
          0                 3           6            77   65     1      -0.8635757086E-01      77   65    1      -0.3086743904E+04      0.3112865220E+04      0.5739518644E+05     -0.8635757086E-01
          0                 4           4            77   65     1      -0.7779565639E-02      77   65    1      -0.2780024278E+03      0.2780362554E+03      0.3112865220E+04     -0.7779565639E-02

    ------------------------------------------------
       NWT REQUIRED            4 OUTER ITERATIONS 
       AND A TOTAL OF         29 INNER ITERATIONS.
    ------------------------------------------------

 NO OUTPUT CONTROL FOR STRESS PERIOD   36   TIME STEP   11

 INTERPOLATION FOR HEAD OBS# 5687, ID 1168-36-335  CHANGED BECAUSE AT LEAST ONE
 NEIGHBORING CELL REQUIRED FOR INTERPOLATION IS DRY OR INACTIVE (OBS2BAS7SE)
 
 SOLVING FOR HEAD 
                                                   Max.-Head-Change                        Max.-Flux-Residual
  Residual-Control   Outer-Iter.   Inner-Iter.     Column Row Layer    Max.-Head-Change    Column Row Layer    Max.-Flux-Residual            L2-New               L2-Old           Solver-Max-Delh
          0                 1          10            62   94     1      -0.1942926096E+01      62   94    1      -0.6681756334E+05      0.5577072515E+06      0.2780362554E+03     -0.1942926096E+01
          0                 2           9            77   65     1      -0.2125766716E+01      44   36    1      -0.8785423264E+04      0.5770632292E+05      0.5577072515E+06     -0.2125766716E+01
          0                 3           6            77   65     1       0.1655876349E+00      44   36    1       0.8626307178E+03      0.1481060423E+04      0.5770632292E+05      0.1655876349E+00
          0                 4           4            77   65     1       0.2148644841E-02      38   25    1      -0.4295350301E+02      0.5957058285E+02      0.1481060423E+04      0.2148644841E-02

    ------------------------------------------------
       NWT REQUIRED            4 OUTER ITERATIONS 
       AND A TOTAL OF         29 INNER ITERATIONS.
    ------------------------------------------------

 OUTPUT CONTROL FOR STRESS PERIOD   36   TIME STEP   12
    SAVE BUDGET
    SAVE HEAD FOR LAYERS:   1  2  3
 UBDSV1 SAVING "         STORAGE" ON UNIT  39 AT TIME STEP 12, STRESS PERIOD  36
 UBDSV2 SAVING "   CONSTANT HEAD" ON UNIT  39 AT TIME STEP 12, STRESS PERIOD  36
 UBDSV1 SAVING "FLOW RIGHT FACE " ON UNIT  39 AT TIME STEP 12, STRESS PERIOD  36
 UBDSV1 SAVING "FLOW FRONT FACE " ON UNIT  39 AT TIME STEP 12, STRESS PERIOD  36
 UBDSV1 SAVING "FLOW LOWER FACE " ON UNIT  39 AT TIME STEP 12, STRESS PERIOD  36
 UBDSV4 SAVING "           WELLS" ON UNIT  39 AT TIME STEP 12, STRESS PERIOD  36
 UBDSV3 SAVING "              ET" ON UNIT  39 AT TIME STEP 12, STRESS PERIOD  36
 UBDSV3 SAVING "        RECHARGE" ON UNIT  39 AT TIME STEP 12, STRESS PERIOD  36

 HEAD WILL BE SAVED ON UNIT   31 AT END OF TIME STEP   12, STRESS PERIOD   36
1
  VOLUMETRIC BUDGET FOR ENTIRE MODEL AT END OF TIME STEP   12, STRESS PERIOD  36
  ------------------------------------------------------------------------------

     CUMULATIVE VOLUMES      L**3       RATES FOR THIS TIME STEP      L**3/T
     ------------------                 ------------------------

           IN:                                      IN:
           ---                                      ---
             STORAGE     =238202699776.0000               STORAGE     =    28907758.0000
       CONSTANT HEAD     = 19169972224.0000         CONSTANT HEAD     =     2379584.2500
               WELLS     = 16115730432.0000                 WELLS     =     1225525.0000
                  ET     =           0.0000                    ET     =           0.0000
            RECHARGE     =225606926336.0000              RECHARGE     =    19601790.0000

                TOTAL IN =499095306240.0000                  TOTAL IN =    52114656.0000

          OUT:                                     OUT:
          ----                                     ----
             STORAGE     = 26790965248.0000               STORAGE     =      500279.6875
       CONSTANT HEAD     = 46485671936.0000         CONSTANT HEAD     =     2878672.2500
               WELLS     =413828186112.0000                 WELLS     =    48404640.0000
                  ET     = 11989687296.0000                    ET     =      331074.4062
            RECHARGE     =           0.0000              RECHARGE     =           0.0000

               TOTAL OUT =499094519808.0000                 TOTAL OUT =    52114668.0000

                IN - OUT =      786432.0000                  IN - OUT =         -12.0000

     PERCENT DISCREPANCY =           0.00         PERCENT DISCREPANCY =          -0.00






         TIME SUMMARY AT END OF TIME STEP   12 IN STRESS PERIOD   36
                    SECONDS     MINUTES      HOURS       DAYS        YEARS
                    -----------------------------------------------------------
   TIME STEP LENGTH 2.62800E+06  43800.      730.00      30.417     8.32763E-02
 STRESS PERIOD TIME 3.15360E+07 5.25600E+05  8760.0      365.00     0.99932    
         TOTAL TIME 1.13608E+09 1.89346E+07 3.15577E+05  13149.      36.000    
1
1
                            STRESS PERIOD NO.   37, LENGTH =   366.0000    
                            -----------------------------------------------

                              NUMBER OF TIME STEPS =    12

                               MULTIPLIER FOR DELT =     1.000

                            INITIAL TIME STEP SIZE =   30.50000    

   1704 WELLS

 REUSING SURF FROM LAST STRESS PERIOD

 REUSING EVTR FROM LAST STRESS PERIOD

 REUSING EXDP FROM LAST STRESS PERIOD



                           RECHARGE
 READING ON UNIT   16 WITH FORMAT: (15F5.0)            


     63 TIME-VARIANT SPECIFIED-HEAD CELLS
 
 SOLVING FOR HEAD 
                                                   Max.-Head-Change                        Max.-Flux-Residual
  Residual-Control   Outer-Iter.   Inner-Iter.     Column Row Layer    Max.-Head-Change    Column Row Layer    Max.-Flux-Residual            L2-New               L2-Old           Solver-Max-Delh
          0                 1          11            62   87     3      -0.6323568687E+02      53  118    2       0.5909420682E+06      0.1289194137E+07      0.5957058285E+02     -0.6323568687E+02
          0                 2          10            62   87     3       0.5806912029E+01      53  118    2      -0.5950019006E+05      0.1328505546E+06      0.1289194137E+07      0.5806912029E+01
          0                 3           6            50  115     2       0.1975322436E+00      60   65    1       0.1668782043E+04      0.2431869118E+04      0.1328505546E+06      0.1975322436E+00
          0                 4           4            50  115     2       0.2825757687E-02      19   72    3       0.2805701060E+02      0.4301108766E+02      0.2431869118E+04      0.2825757687E-02

    ------------------------------------------------
       NWT REQUIRED            4 OUTER ITERATIONS 
       AND A TOTAL OF         31 INNER ITERATIONS.
    ------------------------------------------------

 NO OUTPUT CONTROL FOR STRESS PERIOD   37   TIME STEP    1

 INTERPOLATION FOR HEAD OBS# 1761, ID 2498-37-34   CHANGED BECAUSE AT LEAST ONE
 NEIGHBORING CELL REQUIRED FOR INTERPOLATION IS DRY OR INACTIVE (OBS2BAS7SE)

 INTERPOLATION FOR HEAD OBS# 6993, ID 683-37-32    CHANGED BECAUSE AT LEAST ONE
 NEIGHBORING CELL REQUIRED FOR INTERPOLATION IS DRY OR INACTIVE (OBS2BAS7SE)

 INTERPOLATION FOR HEAD OBS# 7371, ID 451-37-32    CHANGED BECAUSE AT LEAST ONE
 NEIGHBORING CELL REQUIRED FOR INTERPOLATION IS DRY OR INACTIVE (OBS2BAS7SE)
 
 SOLVING FOR HEAD 
                                                   Max.-Head-Change                        Max.-Flux-Residual
  Residual-Control   Outer-Iter.   Inner-Iter.     Column Row Layer    Max.-Head-Change    Column Row Layer    Max.-Flux-Residual            L2-New               L2-Old           Solver-Max-Delh
          0                 1          10            69   63     3      -0.1011986762E+02      56   98    3      -0.2112912902E+06      0.7110629955E+06      0.4301108766E+02     -0.1011986762E+02
          0                 2           9            69   63     3       0.9199418005E+00      56   98    3       0.2067940882E+05      0.7172817906E+05      0.7110629955E+06      0.9199418005E+00
          0                 3           5            51   44     1       0.6393546842E-02      51   44    1       0.2506967782E+03      0.2675884009E+03      0.7172817906E+05      0.6393546842E-02

    ------------------------------------------------
       NWT REQUIRED            3 OUTER ITERATIONS 
       AND A TOTAL OF         24 INNER ITERATIONS.
    ------------------------------------------------

 NO OUTPUT CONTROL FOR STRESS PERIOD   37   TIME STEP    2
 
 SOLVING FOR HEAD 
                                                   Max.-Head-Change                        Max.-Flux-Residual
  Residual-Control   Outer-Iter.   Inner-Iter.     Column Row Layer    Max.-Head-Change    Column Row Layer    Max.-Flux-Residual            L2-New               L2-Old           Solver-Max-Delh
          0                 1          10            56   98     3      -0.8114050771E+01      56   98    3      -0.1886305005E+06      0.6190332874E+06      0.2675884009E+03     -0.8114050771E+01
          0                 2           9            80   57     1      -0.7737358389E+00      56   98    3       0.1850857066E+05      0.6208998950E+05      0.6190332874E+06     -0.7737358389E+00
          0                 3           6            30   41     2      -0.1162644142E+00      30   41    2      -0.2634809139E+04      0.2711928479E+04      0.6208998950E+05     -0.1162644142E+00
          0                 4           5            30   41     1      -0.1069705072E-01      30   41    2      -0.2380681020E+03      0.2381847273E+03      0.2711928479E+04     -0.1069705072E-01
          0                 5           4            30   41     1      -0.9800221938E-03      30   41    2      -0.2141019873E+02      0.2142428854E+02      0.2381847273E+03     -0.9800221938E-03

    ------------------------------------------------
       NWT REQUIRED            5 OUTER ITERATIONS 
       AND A TOTAL OF         34 INNER ITERATIONS.
    ------------------------------------------------

 NO OUTPUT CONTROL FOR STRESS PERIOD   37   TIME STEP    3
 
 SOLVING FOR HEAD 
                                                   Max.-Head-Change                        Max.-Flux-Residual
  Residual-Control   Outer-Iter.   Inner-Iter.     Column Row Layer    Max.-Head-Change    Column Row Layer    Max.-Flux-Residual            L2-New               L2-Old           Solver-Max-Delh
          0                 1          10            56   98     3      -0.7326515521E+01      56   98    3      -0.1693854570E+06      0.5762261673E+06      0.2142428854E+02     -0.7326515521E+01
          0                 2           9            30   41     2      -0.2598024403E+01      60   90    3       0.1769483832E+05      0.6127254959E+05      0.5762261673E+06     -0.2598024403E+01
          0                 3           6            30   41     2       0.1657949625E+00      39   29    1       0.6281147163E+03      0.7749319811E+03      0.6127254959E+05      0.1657949625E+00
          0                 4           4            30   41     1       0.4415788921E-02      49   35    2      -0.5773120254E+01      0.9733884565E+01      0.7749319811E+03      0.4415788921E-02

    ------------------------------------------------
       NWT REQUIRED            4 OUTER ITERATIONS 
       AND A TOTAL OF         29 INNER ITERATIONS.
    ------------------------------------------------

 NO OUTPUT CONTROL FOR STRESS PERIOD   37   TIME STEP    4
 
 SOLVING FOR HEAD 
                                                   Max.-Head-Change                        Max.-Flux-Residual
  Residual-Control   Outer-Iter.   Inner-Iter.     Column Row Layer    Max.-Head-Change    Column Row Layer    Max.-Flux-Residual            L2-New               L2-Old           Solver-Max-Delh
          0                 1          10            56   98     3      -0.6647081392E+01      56   98    3      -0.1529090319E+06      0.5514810054E+06      0.9733884565E+01     -0.6647081392E+01
          0                 2           9            51  103     3       0.3052384289E+01      62   94    2       0.4735389615E+05      0.7299821851E+05      0.5514810054E+06      0.3052384289E+01
          0                 3           5            51  103     3      -0.2774895600E+00      51  103    3      -0.3907836212E+03      0.4621969895E+03      0.7299821851E+05     -0.2774895600E+00
          0                 4           2            85   85     2      -0.6894071053E-04      62   94    1      -0.1395526499E+01      0.1424409732E+01      0.4621969895E+03     -0.6894071053E-04

    ------------------------------------------------
       NWT REQUIRED            4 OUTER ITERATIONS 
       AND A TOTAL OF         26 INNER ITERATIONS.
    ------------------------------------------------

 NO OUTPUT CONTROL FOR STRESS PERIOD   37   TIME STEP    5
 
 SOLVING FOR HEAD 
                                                   Max.-Head-Change                        Max.-Flux-Residual
  Residual-Control   Outer-Iter.   Inner-Iter.     Column Row Layer    Max.-Head-Change    Column Row Layer    Max.-Flux-Residual            L2-New               L2-Old           Solver-Max-Delh
          0                 1          10            51  103     3       0.1307718196E+02      56   98    3      -0.1387006729E+06      0.5340967499E+06      0.1424409732E+01      0.1307718196E+02
          0                 2           9            23   44     2      -0.1326383106E+01      56   98    3       0.1368304173E+05      0.5417989771E+05      0.5340967499E+06     -0.1326383106E+01
          0                 3           5            23   44     2       0.1022759508E+00      23   44    2       0.1317490492E+03      0.1837141663E+03      0.5417989771E+05      0.1022759508E+00
          0                 4           3            23   44     2       0.1397443512E-02      23   44    2       0.1781596710E+01      0.2107328278E+01      0.1837141663E+03      0.1397443512E-02

    ------------------------------------------------
       NWT REQUIRED            4 OUTER ITERATIONS 
       AND A TOTAL OF         27 INNER ITERATIONS.
    ------------------------------------------------

 NO OUTPUT CONTROL FOR STRESS PERIOD   37   TIME STEP    6
 
 SOLVING FOR HEAD 
                                                   Max.-Head-Change                        Max.-Flux-Residual
  Residual-Control   Outer-Iter.   Inner-Iter.     Column Row Layer    Max.-Head-Change    Column Row Layer    Max.-Flux-Residual            L2-New               L2-Old           Solver-Max-Delh
          0                 1          10            56   98     3      -0.5541885708E+01      56   98    3      -0.1263683378E+06      0.5226252119E+06      0.2107328278E+01     -0.5541885708E+01
          0                 2           9            56   98     3       0.4932370055E+00      56   98    3       0.1248251972E+05      0.5469559004E+05      0.5226252119E+06      0.4932370055E+00
          0                 3           5            62   94     1       0.1074010062E-01      62   94    1       0.5762492318E+03      0.7295983701E+03      0.5469559004E+05      0.1074010062E-01
          0                 4           2            85   85     2      -0.7011773760E-04      62   94    1       0.4141010940E+00      0.5554637993E+00      0.7295983701E+03     -0.7011773760E-04

    ------------------------------------------------
       NWT REQUIRED            4 OUTER ITERATIONS 
       AND A TOTAL OF         26 INNER ITERATIONS.
    ------------------------------------------------

 NO OUTPUT CONTROL FOR STRESS PERIOD   37   TIME STEP    7
 
 SOLVING FOR HEAD 
                                                   Max.-Head-Change                        Max.-Flux-Residual
  Residual-Control   Outer-Iter.   Inner-Iter.     Column Row Layer    Max.-Head-Change    Column Row Layer    Max.-Flux-Residual            L2-New               L2-Old           Solver-Max-Delh
          0                 1          10            56   98     3      -0.5089449321E+01      56   98    3      -0.1156010543E+06      0.5130792896E+06      0.5554637993E+00     -0.5089449321E+01
          0                 2           9            60   90     2      -0.1119162332E+01      56   98    3       0.1143163448E+05      0.5325269744E+05      0.5130792896E+06     -0.1119162332E+01
          0                 3           6            60   90     2       0.9439386367E-01      60   90    2       0.1072631318E+04      0.1259374177E+04      0.5325269744E+05      0.9439386367E-01
          0                 4           2            60   90     1       0.7050823956E-03      60   90    2       0.3324771322E+01      0.4854589885E+01      0.1259374177E+04      0.7050823956E-03

    ------------------------------------------------
       NWT REQUIRED            4 OUTER ITERATIONS 
       AND A TOTAL OF         27 INNER ITERATIONS.
    ------------------------------------------------

 NO OUTPUT CONTROL FOR STRESS PERIOD   37   TIME STEP    8
 
 SOLVING FOR HEAD 
                                                   Max.-Head-Change                        Max.-Flux-Residual
  Residual-Control   Outer-Iter.   Inner-Iter.     Column Row Layer    Max.-Head-Change    Column Row Layer    Max.-Flux-Residual            L2-New               L2-Old           Solver-Max-Delh
          0                 1          10            56   98     3      -0.4690222797E+01      56   98    3      -0.1061491425E+06      0.5074915837E+06      0.4854589885E+01     -0.4690222797E+01
          0                 2           9            66  101     1      -0.9950777257E+00      60   87    3       0.2005976609E+05      0.5646188649E+05      0.5074915837E+06     -0.9950777257E+00
          0                 3           7            15   23     2       0.2065799356E+00      35   25    1      -0.5208142840E+04      0.5511368772E+04      0.5646188649E+05      0.2065799356E+00
          0                 4           5            35   25     1      -0.5810855760E-02      35   25    1      -0.4694367362E+03      0.4853266166E+03      0.5511368772E+04     -0.5810855760E-02

    ------------------------------------------------
       NWT REQUIRED            4 OUTER ITERATIONS 
       AND A TOTAL OF         31 INNER ITERATIONS.
    ------------------------------------------------

 NO OUTPUT CONTROL FOR STRESS PERIOD   37   TIME STEP    9
 
 SOLVING FOR HEAD 
                                                   Max.-Head-Change                        Max.-Flux-Residual
  Residual-Control   Outer-Iter.   Inner-Iter.     Column Row Layer    Max.-Head-Change    Column Row Layer    Max.-Flux-Residual            L2-New               L2-Old           Solver-Max-Delh
          0                 1          10            56   98     3      -0.4336350554E+01      56   98    3      -0.9781087109E+05      0.5015014915E+06      0.4853266166E+03     -0.4336350554E+01
          0                 2           9            77   58     1      -0.1194410703E+01      61   84    1      -0.1495219867E+05      0.5534146425E+05      0.5015014915E+06     -0.1194410703E+01
          0                 3           6            77   58     1       0.9814083312E-01      62   86    1       0.1634566939E+04      0.2505419083E+04      0.5534146425E+05      0.9814083312E-01
          0                 4           3            77   58     1       0.8559985559E-03      62   85    1      -0.1008019552E+02      0.1109839354E+02      0.2505419083E+04      0.8559985559E-03

    ------------------------------------------------
       NWT REQUIRED            4 OUTER ITERATIONS 
       AND A TOTAL OF         28 INNER ITERATIONS.
    ------------------------------------------------

 NO OUTPUT CONTROL FOR STRESS PERIOD   37   TIME STEP   10
 
 SOLVING FOR HEAD 
                                                   Max.-Head-Change                        Max.-Flux-Residual
  Residual-Control   Outer-Iter.   Inner-Iter.     Column Row Layer    Max.-Head-Change    Column Row Layer    Max.-Flux-Residual            L2-New               L2-Old           Solver-Max-Delh
          0                 1          10            56   98     3      -0.4021361805E+01      56   98    3      -0.9042147205E+05      0.4972938228E+06      0.1109839354E+02     -0.4021361805E+01
          0                 2           9            56   98     3       0.3589680168E+00      65   45    2       0.1200394463E+05      0.5257763505E+05      0.4972938228E+06      0.3589680168E+00
          0                 3           5            13   85     1      -0.6022448470E-02      13   85    1      -0.2938029331E+03      0.4294645767E+03      0.5257763505E+05     -0.6022448470E-02

    ------------------------------------------------
       NWT REQUIRED            3 OUTER ITERATIONS 
       AND A TOTAL OF         24 INNER ITERATIONS.
    ------------------------------------------------

 NO OUTPUT CONTROL FOR STRESS PERIOD   37   TIME STEP   11
 
 SOLVING FOR HEAD 
                                                   Max.-Head-Change                        Max.-Flux-Residual
  Residual-Control   Outer-Iter.   Inner-Iter.     Column Row Layer    Max.-Head-Change    Column Row Layer    Max.-Flux-Residual            L2-New               L2-Old           Solver-Max-Delh
          0                 1          10            56   98     3      -0.3739888000E+01      56   98    3      -0.8384533940E+05      0.4935047749E+06      0.4294645767E+03     -0.3739888000E+01
          0                 2           9            24   43     2      -0.5536904979E+00      56   98    3       0.8318027679E+04      0.5127476309E+05      0.4935047749E+06     -0.5536904979E+00
          0                 3           5            24   43     2       0.3999718481E-01      34   30    1       0.3735225732E+03      0.4354665468E+03      0.5127476309E+05      0.3999718481E-01
          0                 4           3            24   43     1       0.7557535474E-03      24   43    3      -0.1061361447E+01      0.1987527400E+01      0.4354665468E+03      0.7557535474E-03

    ------------------------------------------------
       NWT REQUIRED            4 OUTER ITERATIONS 
       AND A TOTAL OF         27 INNER ITERATIONS.
    ------------------------------------------------

 OUTPUT CONTROL FOR STRESS PERIOD   37   TIME STEP   12
    SAVE BUDGET
 UBDSV1 SAVING "         STORAGE" ON UNIT  39 AT TIME STEP 12, STRESS PERIOD  37
 UBDSV2 SAVING "   CONSTANT HEAD" ON UNIT  39 AT TIME STEP 12, STRESS PERIOD  37
 UBDSV1 SAVING "FLOW RIGHT FACE " ON UNIT  39 AT TIME STEP 12, STRESS PERIOD  37
 UBDSV1 SAVING "FLOW FRONT FACE " ON UNIT  39 AT TIME STEP 12, STRESS PERIOD  37
 UBDSV1 SAVING "FLOW LOWER FACE " ON UNIT  39 AT TIME STEP 12, STRESS PERIOD  37
 UBDSV4 SAVING "           WELLS" ON UNIT  39 AT TIME STEP 12, STRESS PERIOD  37
 UBDSV3 SAVING "              ET" ON UNIT  39 AT TIME STEP 12, STRESS PERIOD  37
 UBDSV3 SAVING "        RECHARGE" ON UNIT  39 AT TIME STEP 12, STRESS PERIOD  37

 INTERPOLATION FOR HEAD OBS# 7524, ID 269-38-4     CHANGED BECAUSE AT LEAST ONE
 NEIGHBORING CELL REQUIRED FOR INTERPOLATION IS DRY OR INACTIVE (OBS2BAS7SE)
1
  VOLUMETRIC BUDGET FOR ENTIRE MODEL AT END OF TIME STEP   12, STRESS PERIOD  37
  ------------------------------------------------------------------------------

     CUMULATIVE VOLUMES      L**3       RATES FOR THIS TIME STEP      L**3/T
     ------------------                 ------------------------

           IN:                                      IN:
           ---                                      ---
             STORAGE     =247598153728.0000               STORAGE     =    25124928.0000
       CONSTANT HEAD     = 20035461120.0000         CONSTANT HEAD     =     2360025.5000
               WELLS     = 16564267008.0000                 WELLS     =     1225525.0000
                  ET     =           0.0000                    ET     =           0.0000
            RECHARGE     =233272475648.0000              RECHARGE     =    20944132.0000

                TOTAL IN =517470355456.0000                  TOTAL IN =    49654612.0000

          OUT:                                     OUT:
          ----                                     ----
             STORAGE     = 27135285248.0000               STORAGE     =      375258.5938
       CONSTANT HEAD     = 47587643392.0000         CONSTANT HEAD     =     3020831.0000
               WELLS     =430631288832.0000                 WELLS     =    45907988.0000
                  ET     = 12115255296.0000                    ET     =      350536.7188
            RECHARGE     =           0.0000              RECHARGE     =           0.0000

               TOTAL OUT =517469470720.0000                 TOTAL OUT =    49654612.0000

                IN - OUT =      884736.0000                  IN - OUT =           0.0000

     PERCENT DISCREPANCY =           0.00         PERCENT DISCREPANCY =           0.00






         TIME SUMMARY AT END OF TIME STEP   12 IN STRESS PERIOD   37
                    SECONDS     MINUTES      HOURS       DAYS        YEARS
                    -----------------------------------------------------------
   TIME STEP LENGTH 2.63520E+06  43920.      732.00      30.500     8.35044E-02
 STRESS PERIOD TIME 3.16224E+07 5.27040E+05  8784.0      366.00      1.0021    
         TOTAL TIME 1.16770E+09 1.94616E+07 3.24361E+05  13515.      37.002    
1
1
                            STRESS PERIOD NO.   38, LENGTH =   365.0000    
                            -----------------------------------------------

                              NUMBER OF TIME STEPS =    12

                               MULTIPLIER FOR DELT =     1.000

                            INITIAL TIME STEP SIZE =   30.41667    

   1682 WELLS

 REUSING SURF FROM LAST STRESS PERIOD

 REUSING EVTR FROM LAST STRESS PERIOD

 REUSING EXDP FROM LAST STRESS PERIOD



                           RECHARGE
 READING ON UNIT   16 WITH FORMAT: (15F5.0)            


     63 TIME-VARIANT SPECIFIED-HEAD CELLS
 
 SOLVING FOR HEAD 
                                                   Max.-Head-Change                        Max.-Flux-Residual
  Residual-Control   Outer-Iter.   Inner-Iter.     Column Row Layer    Max.-Head-Change    Column Row Layer    Max.-Flux-Residual            L2-New               L2-Old           Solver-Max-Delh
          0                 1          11            62   87     3       0.6291384491E+02      62   96    3       0.4399174188E+06      0.1265914722E+07      0.1987527400E+01      0.6291384491E+02
          0                 2          10            62   87     3      -0.5599719656E+01      20   18    1      -0.5038344876E+05      0.1544849303E+06      0.1265914722E+07     -0.5599719656E+01
          0                 3           7            51  103     3       0.8395237626E+00      42   33    1       0.3649007009E+04      0.6283215299E+04      0.1544849303E+06      0.8395237626E+00
          0                 4           5            61   87     3       0.8203819927E-02      44   33    2       0.1282369666E+03      0.2424090848E+03      0.6283215299E+04      0.8203819927E-02

    ------------------------------------------------
       NWT REQUIRED            4 OUTER ITERATIONS 
       AND A TOTAL OF         33 INNER ITERATIONS.
    ------------------------------------------------

 NO OUTPUT CONTROL FOR STRESS PERIOD   38   TIME STEP    1
 
 SOLVING FOR HEAD 
                                                   Max.-Head-Change                        Max.-Flux-Residual
  Residual-Control   Outer-Iter.   Inner-Iter.     Column Row Layer    Max.-Head-Change    Column Row Layer    Max.-Flux-Residual            L2-New               L2-Old           Solver-Max-Delh
          0                 1          10            62   96     3       0.1782520112E+02      62   96    3       0.3491972957E+06      0.7382414743E+06      0.2424090848E+03      0.1782520112E+02
          0                 2           9            63   96     3      -0.2088941232E+01      62   86    1      -0.7286628073E+05      0.1043721265E+06      0.7382414743E+06     -0.2088941232E+01
          0                 3           7            63   96     3       0.1213928899E+01      62   86    2       0.5240184096E+05      0.5699057784E+05      0.1043721265E+06      0.1213928899E+01
          0                 4           5            63   96     3       0.1092414413E+00      62   86    2       0.4715570300E+04      0.5129797823E+04      0.5699057784E+05      0.1092414413E+00
          0                 5           4            63   96     3       0.9821691966E-02      62   86    2       0.4239397481E+03      0.4612076178E+03      0.5129797823E+04      0.9821691966E-02

    ------------------------------------------------
       NWT REQUIRED            5 OUTER ITERATIONS 
       AND A TOTAL OF         35 INNER ITERATIONS.
    ------------------------------------------------

 NO OUTPUT CONTROL FOR STRESS PERIOD   38   TIME STEP    2
 
 SOLVING FOR HEAD 
                                                   Max.-Head-Change                        Max.-Flux-Residual
  Residual-Control   Outer-Iter.   Inner-Iter.     Column Row Layer    Max.-Head-Change    Column Row Layer    Max.-Flux-Residual            L2-New               L2-Old           Solver-Max-Delh
          0                 1          10            62   96     3       0.1550143339E+02      62   96    3       0.3017897421E+06      0.6087633551E+06      0.4612076178E+03      0.1550143339E+02
          0                 2           9            63   96     3       0.3496542347E+02      63   96    3       0.9723650406E+05      0.1179335764E+06      0.6087633551E+06      0.3496542347E+02
          0                 3           6            63   96     3      -0.3491950528E+01      63   96    3      -0.1129928253E+05      0.1255098885E+05      0.1179335764E+06     -0.3491950528E+01
          0                 4           3            62   96     3       0.2573354182E-02      54  108    2      -0.8290588339E+02      0.1057238604E+03      0.1255098885E+05      0.2573354182E-02

    ------------------------------------------------
       NWT REQUIRED            4 OUTER ITERATIONS 
       AND A TOTAL OF         28 INNER ITERATIONS.
    ------------------------------------------------

 NO OUTPUT CONTROL FOR STRESS PERIOD   38   TIME STEP    3
 
 SOLVING FOR HEAD 
                                                   Max.-Head-Change                        Max.-Flux-Residual
  Residual-Control   Outer-Iter.   Inner-Iter.     Column Row Layer    Max.-Head-Change    Column Row Layer    Max.-Flux-Residual            L2-New               L2-Old           Solver-Max-Delh
          0                 1          10            62   96     3       0.1512285489E+02      62   96    3       0.2884478078E+06      0.5398062534E+06      0.1057238604E+03      0.1512285489E+02
          0                 2           9            62   96     3       0.5700664488E+02      62   96    3       0.1845209169E+06      0.1950208064E+06      0.5398062534E+06      0.5700664488E+02
          0                 3           7            62   96     3      -0.4164579936E+01      62   96    3      -0.1279452618E+05      0.1408521261E+05      0.1950208064E+06     -0.4164579936E+01
          0                 4           3            54  108     2       0.2089131478E-02      54  108    2       0.4797921830E+01      0.7339196924E+01      0.1408521261E+05      0.2089131478E-02

    ------------------------------------------------
       NWT REQUIRED            4 OUTER ITERATIONS 
       AND A TOTAL OF         29 INNER ITERATIONS.
    ------------------------------------------------

 NO OUTPUT CONTROL FOR STRESS PERIOD   38   TIME STEP    4
 
 SOLVING FOR HEAD 
                                                   Max.-Head-Change                        Max.-Flux-Residual
  Residual-Control   Outer-Iter.   Inner-Iter.     Column Row Layer    Max.-Head-Change    Column Row Layer    Max.-Flux-Residual            L2-New               L2-Old           Solver-Max-Delh
          0                 1          10            62   96     3       0.3113201323E+02      62   96    3       0.8452095021E+05      0.4313643723E+06      0.7339196924E+01      0.3113201323E+02
          0                 2           9            62   96     3      -0.3444332658E+01      61   84    1      -0.1902555851E+05      0.4815758857E+05      0.4313643723E+06     -0.3444332658E+01
          0                 3           5            57  103     2       0.1348486501E-01      57  103    2       0.8643822424E+02      0.1079790174E+03      0.4815758857E+05      0.1348486501E-01
          0                 4           2            57  103     1       0.1474593074E-03      61   85    1       0.4807808548E+00      0.1106698284E+01      0.1079790174E+03      0.1474593074E-03

    ------------------------------------------------
       NWT REQUIRED            4 OUTER ITERATIONS 
       AND A TOTAL OF         26 INNER ITERATIONS.
    ------------------------------------------------

 NO OUTPUT CONTROL FOR STRESS PERIOD   38   TIME STEP    5
 
 SOLVING FOR HEAD 
                                                   Max.-Head-Change                        Max.-Flux-Residual
  Residual-Control   Outer-Iter.   Inner-Iter.     Column Row Layer    Max.-Head-Change    Column Row Layer    Max.-Flux-Residual            L2-New               L2-Old           Solver-Max-Delh
          0                 1          10            63   96     3       0.5755232246E+01      62   86    1       0.6200018602E+05      0.3974644493E+06      0.1106698284E+01      0.5755232246E+01
          0                 2           9            63   96     3      -0.5156310549E+00      62   94    2       0.1808040916E+05      0.4371140127E+05      0.3974644493E+06     -0.5156310549E+00
          0                 3           5            62   94     2      -0.4479015387E-01      62   94    2      -0.1782455356E+04      0.1836562706E+04      0.4371140127E+05     -0.4479015387E-01
          0                 4           2            85   85     2      -0.7399119582E-04      58  110    2      -0.1017197859E+01      0.1240664647E+01      0.1836562706E+04     -0.7399119582E-04

    ------------------------------------------------
       NWT REQUIRED            4 OUTER ITERATIONS 
       AND A TOTAL OF         26 INNER ITERATIONS.
    ------------------------------------------------

 NO OUTPUT CONTROL FOR STRESS PERIOD   38   TIME STEP    6
 
 SOLVING FOR HEAD 
                                                   Max.-Head-Change                        Max.-Flux-Residual
  Residual-Control   Outer-Iter.   Inner-Iter.     Column Row Layer    Max.-Head-Change    Column Row Layer    Max.-Flux-Residual            L2-New               L2-Old           Solver-Max-Delh
          0                 1          10            65   96     3       0.3088606847E+01      62   86    1       0.5288027032E+05      0.3780447229E+06      0.1240664647E+01      0.3088606847E+01
          0                 2           9            77   62     1      -0.8300445226E+00      62   86    1      -0.5473473336E+04      0.3822036771E+05      0.3780447229E+06     -0.8300445226E+00
          0                 3           5            77   62     1       0.6786095232E-01      61   84    2      -0.3642083626E+03      0.4432579766E+03      0.3822036771E+05      0.6786095232E-01
          0                 4           2            77   62     1       0.6287806212E-03      77   62    1       0.1587137899E+01      0.1659116142E+01      0.4432579766E+03      0.6287806212E-03

    ------------------------------------------------
       NWT REQUIRED            4 OUTER ITERATIONS 
       AND A TOTAL OF         26 INNER ITERATIONS.
    ------------------------------------------------

 NO OUTPUT CONTROL FOR STRESS PERIOD   38   TIME STEP    7
 
 SOLVING FOR HEAD 
                                                   Max.-Head-Change                        Max.-Flux-Residual
  Residual-Control   Outer-Iter.   Inner-Iter.     Column Row Layer    Max.-Head-Change    Column Row Layer    Max.-Flux-Residual            L2-New               L2-Old           Solver-Max-Delh
          0                 1          10            65   96     3       0.2056490725E+01      62   94    1       0.5987430596E+05      0.3641656641E+06      0.1659116142E+01      0.2056490725E+01
          0                 2           9            79   54     1      -0.1334013897E+01      55   39    2       0.6594495670E+04      0.3713625866E+05      0.3641656641E+06     -0.1334013897E+01
          0                 3           5            79   54     1       0.9620159589E-01      79   54    1       0.1464973660E+03      0.1594277388E+03      0.3713625866E+05      0.9620159589E-01
          0                 4           3            79   54     1       0.1831394963E-02      79   54    1       0.2746166869E+01      0.2939608351E+01      0.1594277388E+03      0.1831394963E-02

    ------------------------------------------------
       NWT REQUIRED            4 OUTER ITERATIONS 
       AND A TOTAL OF         27 INNER ITERATIONS.
    ------------------------------------------------

 NO OUTPUT CONTROL FOR STRESS PERIOD   38   TIME STEP    8
 
 SOLVING FOR HEAD 
                                                   Max.-Head-Change                        Max.-Flux-Residual
  Residual-Control   Outer-Iter.   Inner-Iter.     Column Row Layer    Max.-Head-Change    Column Row Layer    Max.-Flux-Residual            L2-New               L2-Old           Solver-Max-Delh
          0                 1          10            79   54     1      -0.2598459208E+01      62   94    1       0.5393738193E+05      0.3514364706E+06      0.2939608351E+01     -0.2598459208E+01
          0                 2           9            24   41     2      -0.1185890199E+01      62   94    1      -0.5624739201E+04      0.3544349399E+05      0.3514364706E+06     -0.1185890199E+01
          0                 3           6            24   41     2       0.8049615705E-01      58   41    2       0.2497765248E+03      0.3595508642E+03      0.3544349399E+05      0.8049615705E-01
          0                 4           4            24   41     1       0.1869339177E-02      24   41    1       0.2216875792E+01      0.3479544766E+01      0.3595508642E+03      0.1869339177E-02

    ------------------------------------------------
       NWT REQUIRED            4 OUTER ITERATIONS 
       AND A TOTAL OF         29 INNER ITERATIONS.
    ------------------------------------------------

 NO OUTPUT CONTROL FOR STRESS PERIOD   38   TIME STEP    9
 
 SOLVING FOR HEAD 
                                                   Max.-Head-Change                        Max.-Flux-Residual
  Residual-Control   Outer-Iter.   Inner-Iter.     Column Row Layer    Max.-Head-Change    Column Row Layer    Max.-Flux-Residual            L2-New               L2-Old           Solver-Max-Delh
          0                 1          10            62   94     1       0.1319796953E+01      62   94    1       0.4861561024E+05      0.3406298845E+06      0.3479544766E+01      0.1319796953E+01
          0                 2           9            62   94     1      -0.1230270495E+00      58   41    2       0.6470027105E+04      0.3478873272E+05      0.3406298845E+06     -0.1230270495E+00
          0                 3           5            24   41     1       0.1095510649E-02      22   17    2      -0.3295484246E+02      0.5318737885E+02      0.3478873272E+05      0.1095510649E-02

    ------------------------------------------------
       NWT REQUIRED            3 OUTER ITERATIONS 
       AND A TOTAL OF         24 INNER ITERATIONS.
    ------------------------------------------------

 NO OUTPUT CONTROL FOR STRESS PERIOD   38   TIME STEP   10
 
 SOLVING FOR HEAD 
                                                   Max.-Head-Change                        Max.-Flux-Residual
  Residual-Control   Outer-Iter.   Inner-Iter.     Column Row Layer    Max.-Head-Change    Column Row Layer    Max.-Flux-Residual            L2-New               L2-Old           Solver-Max-Delh
          0                 1          10            62   94     1       0.1192848320E+01      62   94    1       0.4387700835E+05      0.3314823969E+06      0.5318737885E+02      0.1192848320E+01
          0                 2           9            82   61     1      -0.1690523019E+01      62   94    1      -0.4525411472E+04      0.3332742365E+05      0.3314823969E+06     -0.1690523019E+01
          0                 3           5            82   61     1       0.1001946786E+00      20   18    1       0.2735041455E+03      0.3371361560E+03      0.3332742365E+05      0.1001946786E+00
          0                 4           2            82   61     1       0.3173532639E-02      61   93    1       0.5733441800E+01      0.6504758734E+01      0.3371361560E+03      0.3173532639E-02

    ------------------------------------------------
       NWT REQUIRED            4 OUTER ITERATIONS 
       AND A TOTAL OF         26 INNER ITERATIONS.
    ------------------------------------------------

 NO OUTPUT CONTROL FOR STRESS PERIOD   38   TIME STEP   11
 
 SOLVING FOR HEAD 
                                                   Max.-Head-Change                        Max.-Flux-Residual
  Residual-Control   Outer-Iter.   Inner-Iter.     Column Row Layer    Max.-Head-Change    Column Row Layer    Max.-Flux-Residual            L2-New               L2-Old           Solver-Max-Delh
          0                 1          10            82   61     1      -0.3058394142E+01      62   94    1       0.3967163160E+05      0.3237139864E+06      0.6504758734E+01     -0.3058394142E+01
          0                 2           9            64  109     1      -0.5051334376E+00      62   94    1      -0.4074116917E+04      0.3254813403E+05      0.3237139864E+06     -0.5051334376E+00
          0                 3           5            64  109     1       0.4290598510E-01      64  109    1       0.1749898832E+03      0.2123334363E+03      0.3254813403E+05      0.4290598510E-01
          0                 4           2            64  109     1       0.2558821438E-03      64  109    1       0.1016228767E+01      0.1045765812E+01      0.2123334363E+03      0.2558821438E-03

    ------------------------------------------------
       NWT REQUIRED            4 OUTER ITERATIONS 
       AND A TOTAL OF         26 INNER ITERATIONS.
    ------------------------------------------------

 OUTPUT CONTROL FOR STRESS PERIOD   38   TIME STEP   12
    SAVE BUDGET
 UBDSV1 SAVING "         STORAGE" ON UNIT  39 AT TIME STEP 12, STRESS PERIOD  38
 UBDSV2 SAVING "   CONSTANT HEAD" ON UNIT  39 AT TIME STEP 12, STRESS PERIOD  38
 UBDSV1 SAVING "FLOW RIGHT FACE " ON UNIT  39 AT TIME STEP 12, STRESS PERIOD  38
 UBDSV1 SAVING "FLOW FRONT FACE " ON UNIT  39 AT TIME STEP 12, STRESS PERIOD  38
 UBDSV1 SAVING "FLOW LOWER FACE " ON UNIT  39 AT TIME STEP 12, STRESS PERIOD  38
 UBDSV4 SAVING "           WELLS" ON UNIT  39 AT TIME STEP 12, STRESS PERIOD  38
 UBDSV3 SAVING "              ET" ON UNIT  39 AT TIME STEP 12, STRESS PERIOD  38
 UBDSV3 SAVING "        RECHARGE" ON UNIT  39 AT TIME STEP 12, STRESS PERIOD  38
1
  VOLUMETRIC BUDGET FOR ENTIRE MODEL AT END OF TIME STEP   12, STRESS PERIOD  38
  ------------------------------------------------------------------------------

     CUMULATIVE VOLUMES      L**3       RATES FOR THIS TIME STEP      L**3/T
     ------------------                 ------------------------

           IN:                                      IN:
           ---                                      ---
             STORAGE     =253831413760.0000               STORAGE     =    15650193.0000
       CONSTANT HEAD     = 20852940800.0000         CONSTANT HEAD     =     2188322.0000
               WELLS     = 17011587072.0000                 WELLS     =     1225525.0000
                  ET     =           0.0000                    ET     =           0.0000
            RECHARGE     =243659866112.0000              RECHARGE     =    28458762.0000

                TOTAL IN =535355785216.0000                  TOTAL IN =    47522800.0000

          OUT:                                     OUT:
          ----                                     ----
             STORAGE     = 28508418048.0000               STORAGE     =     2243618.2500
       CONSTANT HEAD     = 48712302592.0000         CONSTANT HEAD     =     3094141.2500
               WELLS     =445872832512.0000                 WELLS     =    41757108.0000
                  ET     = 12261408768.0000                    ET     =      427936.0625
            RECHARGE     =           0.0000              RECHARGE     =           0.0000

               TOTAL OUT =535354933248.0000                 TOTAL OUT =    47522804.0000

                IN - OUT =      851968.0000                  IN - OUT =          -4.0000

     PERCENT DISCREPANCY =           0.00         PERCENT DISCREPANCY =          -0.00






         TIME SUMMARY AT END OF TIME STEP   12 IN STRESS PERIOD   38
                    SECONDS     MINUTES      HOURS       DAYS        YEARS
                    -----------------------------------------------------------
   TIME STEP LENGTH 2.62800E+06  43800.      730.00      30.417     8.32763E-02
 STRESS PERIOD TIME 3.15360E+07 5.25600E+05  8760.0      365.00     0.99932    
         TOTAL TIME 1.19923E+09 1.99872E+07 3.33121E+05  13880.      38.001    
1
1
                            STRESS PERIOD NO.   39, LENGTH =   365.0000    
                            -----------------------------------------------

                              NUMBER OF TIME STEPS =    12

                               MULTIPLIER FOR DELT =     1.000

                            INITIAL TIME STEP SIZE =   30.41667    

   1607 WELLS

 REUSING SURF FROM LAST STRESS PERIOD

 REUSING EVTR FROM LAST STRESS PERIOD

 REUSING EXDP FROM LAST STRESS PERIOD



                           RECHARGE
 READING ON UNIT   16 WITH FORMAT: (15F5.0)            


     63 TIME-VARIANT SPECIFIED-HEAD CELLS
 
 SOLVING FOR HEAD 
                                                   Max.-Head-Change                        Max.-Flux-Residual
  Residual-Control   Outer-Iter.   Inner-Iter.     Column Row Layer    Max.-Head-Change    Column Row Layer    Max.-Flux-Residual            L2-New               L2-Old           Solver-Max-Delh
          0                 1          11            19   38     2       0.3924501688E+02      58  102    3       0.3486367292E+06      0.1285220525E+07      0.1045765812E+01      0.3924501688E+02
          0                 2          10            66  101     1      -0.1205885469E+02      66  101    1      -0.3236053663E+06      0.4288318354E+06      0.1285220525E+07     -0.1205885469E+02
          0                 3           6            60   87     3      -0.7934614485E+00      60   87    3      -0.1022648259E+05      0.1237176598E+05      0.4288318354E+06     -0.7934614485E+00
          0                 4           4            92   77     2      -0.5457483139E-02      59   87    3      -0.7682335660E+02      0.8552987511E+02      0.1237176598E+05     -0.5457483139E-02

    ------------------------------------------------
       NWT REQUIRED            4 OUTER ITERATIONS 
       AND A TOTAL OF         31 INNER ITERATIONS.
    ------------------------------------------------

 NO OUTPUT CONTROL FOR STRESS PERIOD   39   TIME STEP    1
 
 SOLVING FOR HEAD 
                                                   Max.-Head-Change                        Max.-Flux-Residual
  Residual-Control   Outer-Iter.   Inner-Iter.     Column Row Layer    Max.-Head-Change    Column Row Layer    Max.-Flux-Residual            L2-New               L2-Old           Solver-Max-Delh
          0                 1          10            60   87     3       0.8130986558E+01      56  100    3      -0.1695529277E+06      0.7254742242E+06      0.8552987511E+02      0.8130986558E+01
          0                 2           9            60   87     3      -0.7422632827E+00      56  100    3       0.1684670739E+05      0.7361129973E+05      0.7254742242E+06     -0.7422632827E+00
          0                 3           5            71   20     2       0.1816199381E-01      60   97    1      -0.9411543317E+03      0.1000872763E+04      0.7361129973E+05      0.1816199381E-01
          0                 4           3            60   97     1      -0.1267658410E-02      60   97    1      -0.8500371206E+02      0.8552756674E+02      0.1000872763E+04     -0.1267658410E-02

    ------------------------------------------------
       NWT REQUIRED            4 OUTER ITERATIONS 
       AND A TOTAL OF         27 INNER ITERATIONS.
    ------------------------------------------------

 NO OUTPUT CONTROL FOR STRESS PERIOD   39   TIME STEP    2
 
 SOLVING FOR HEAD 
                                                   Max.-Head-Change                        Max.-Flux-Residual
  Residual-Control   Outer-Iter.   Inner-Iter.     Column Row Layer    Max.-Head-Change    Column Row Layer    Max.-Flux-Residual            L2-New               L2-Old           Solver-Max-Delh
          0                 1          10            56   98     3      -0.5975822793E+01      56   98    3      -0.1388250297E+06      0.6003557322E+06      0.8552756674E+02     -0.5975822793E+01
          0                 2           9            58   72     1      -0.7231244021E+00      58   72    1      -0.3268662061E+05      0.6875237168E+05      0.6003557322E+06     -0.7231244021E+00
          0                 3           6            58   72     2       0.2218373708E+00      58   72    2       0.1679741719E+05      0.1680100909E+05      0.6875237168E+05      0.2218373708E+00
          0                 4           4            58   72     2       0.1995218709E-01      58   72    2       0.1514876400E+04      0.1517178286E+04      0.1680100909E+05      0.1995218709E-01
          0                 5           3            58   72     2       0.1793766391E-02      58   72    2       0.1361853883E+03      0.1363946626E+03      0.1517178286E+04      0.1793766391E-02

    ------------------------------------------------
       NWT REQUIRED            5 OUTER ITERATIONS 
       AND A TOTAL OF         32 INNER ITERATIONS.
    ------------------------------------------------

 NO OUTPUT CONTROL FOR STRESS PERIOD   39   TIME STEP    3
 
 SOLVING FOR HEAD 
                                                   Max.-Head-Change                        Max.-Flux-Residual
  Residual-Control   Outer-Iter.   Inner-Iter.     Column Row Layer    Max.-Head-Change    Column Row Layer    Max.-Flux-Residual            L2-New               L2-Old           Solver-Max-Delh
          0                 1          10            56   98     3      -0.5398342392E+01      56   98    3      -0.1249546304E+06      0.5307145146E+06      0.1363946626E+03     -0.5398342392E+01
          0                 2           9            75   59     1      -0.7327347006E+00      58  101    2      -0.2538256936E+05      0.5957419823E+05      0.5307145146E+06     -0.7327347006E+00
          0                 3           5            75   59     1       0.6284122320E-01      58   72    2      -0.8861284069E+03      0.9379054040E+03      0.5957419823E+05      0.6284122320E-01
          0                 4           2            75   59     1       0.3253096644E-03      75   59    1       0.1182076501E+01      0.1776738301E+01      0.9379054040E+03      0.3253096644E-03

    ------------------------------------------------
       NWT REQUIRED            4 OUTER ITERATIONS 
       AND A TOTAL OF         26 INNER ITERATIONS.
    ------------------------------------------------

 NO OUTPUT CONTROL FOR STRESS PERIOD   39   TIME STEP    4
 
 SOLVING FOR HEAD 
                                                   Max.-Head-Change                        Max.-Flux-Residual
  Residual-Control   Outer-Iter.   Inner-Iter.     Column Row Layer    Max.-Head-Change    Column Row Layer    Max.-Flux-Residual            L2-New               L2-Old           Solver-Max-Delh
          0                 1          10            56   98     3      -0.4891594763E+01      81   46    1       0.1141289005E+06      0.4848078758E+06      0.1776738301E+01     -0.4891594763E+01
          0                 2           9            80   69     1      -0.5123485937E+00      81   46    1      -0.1143830389E+05      0.4946956643E+05      0.4848078758E+06     -0.5123485937E+00
          0                 3           5            80   69     1       0.4251651508E-01      58  101    3      -0.3332138547E+03      0.3960453766E+03      0.4946956643E+05      0.4251651508E-01
          0                 4           3            80   69     1       0.3369705922E-03      80   69    1       0.1271207031E+01      0.1380502384E+01      0.3960453766E+03      0.3369705922E-03

    ------------------------------------------------
       NWT REQUIRED            4 OUTER ITERATIONS 
       AND A TOTAL OF         27 INNER ITERATIONS.
    ------------------------------------------------

 NO OUTPUT CONTROL FOR STRESS PERIOD   39   TIME STEP    5
 
 SOLVING FOR HEAD 
                                                   Max.-Head-Change                        Max.-Flux-Residual
  Residual-Control   Outer-Iter.   Inner-Iter.     Column Row Layer    Max.-Head-Change    Column Row Layer    Max.-Flux-Residual            L2-New               L2-Old           Solver-Max-Delh
          0                 1          10            56   98     3      -0.4444481683E+01      81   46    1       0.1104854956E+06      0.4512855420E+06      0.1380502384E+01     -0.4444481683E+01
          0                 2           9            56   98     3       0.3969577102E+00      81   46    1      -0.1107232289E+05      0.4629747663E+05      0.4512855420E+06      0.3969577102E+00
          0                 3           5            56   98     2       0.2838906192E-02      56   98    2       0.9512108330E+01      0.3111699710E+02      0.4629747663E+05      0.2838906192E-02

    ------------------------------------------------
       NWT REQUIRED            3 OUTER ITERATIONS 
       AND A TOTAL OF         24 INNER ITERATIONS.
    ------------------------------------------------

 NO OUTPUT CONTROL FOR STRESS PERIOD   39   TIME STEP    6

 INTERPOLATION FOR HEAD OBS# 7653, ID 191-39-212   CHANGED BECAUSE AT LEAST ONE
 NEIGHBORING CELL REQUIRED FOR INTERPOLATION IS DRY OR INACTIVE (OBS2BAS7SE)
 
 SOLVING FOR HEAD 
                                                   Max.-Head-Change                        Max.-Flux-Residual
  Residual-Control   Outer-Iter.   Inner-Iter.     Column Row Layer    Max.-Head-Change    Column Row Layer    Max.-Flux-Residual            L2-New               L2-Old           Solver-Max-Delh
          0                 1          10            56   98     3      -0.4048173855E+01      81   46    1       0.1069322336E+06      0.4248949585E+06      0.3111699710E+02     -0.4048173855E+01
          0                 2           9            56   98     3       0.4557027840E+00      56   98    3       0.1214051848E+05      0.4440294086E+05      0.4248949585E+06      0.4557027840E+00
          0                 3           6            24   46     2      -0.2002759519E-01      59  101    2      -0.6044110041E+03      0.6910655579E+03      0.4440294086E+05     -0.2002759519E-01
          0                 4           3            24   46     1      -0.2751320540E-03      24   46    1      -0.4214426726E+00      0.6019663820E+00      0.6910655579E+03     -0.2751320540E-03

    ------------------------------------------------
       NWT REQUIRED            4 OUTER ITERATIONS 
       AND A TOTAL OF         28 INNER ITERATIONS.
    ------------------------------------------------

 NO OUTPUT CONTROL FOR STRESS PERIOD   39   TIME STEP    7
 
 SOLVING FOR HEAD 
                                                   Max.-Head-Change                        Max.-Flux-Residual
  Residual-Control   Outer-Iter.   Inner-Iter.     Column Row Layer    Max.-Head-Change    Column Row Layer    Max.-Flux-Residual            L2-New               L2-Old           Solver-Max-Delh
          0                 1          10            81   45     1       0.3505248764E+01      81   46    1       0.1034707951E+06      0.4024417503E+06      0.6019663820E+00      0.3505248764E+01
          0                 2           9            81   45     1      -0.3191086673E+00      81   46    1      -0.1036782615E+05      0.4125339972E+05      0.4024417503E+06     -0.3191086673E+00
          0                 3           5            75   55     1       0.6637860111E-02      35   25    2       0.4094825343E+03      0.4122894373E+03      0.4125339972E+05      0.6637860111E-02

    ------------------------------------------------
       NWT REQUIRED            3 OUTER ITERATIONS 
       AND A TOTAL OF         24 INNER ITERATIONS.
    ------------------------------------------------

 NO OUTPUT CONTROL FOR STRESS PERIOD   39   TIME STEP    8
 
 SOLVING FOR HEAD 
                                                   Max.-Head-Change                        Max.-Flux-Residual
  Residual-Control   Outer-Iter.   Inner-Iter.     Column Row Layer    Max.-Head-Change    Column Row Layer    Max.-Flux-Residual            L2-New               L2-Old           Solver-Max-Delh
          0                 1          10            81   45     1       0.3375029134E+01      81   46    1       0.1001024563E+06      0.3837515951E+06      0.4122894373E+03      0.3375029134E+01
          0                 2           9            79   55     1      -0.3963933055E+01      19   72    2      -0.1017786519E+05      0.4085677672E+05      0.3837515951E+06     -0.3963933055E+01
          0                 3           5            79   55     1       0.2505695946E+00      35   25    2      -0.6534704574E+03      0.8729301671E+03      0.4085677672E+05      0.2505695946E+00
          0                 4           2            79   55     1       0.6880303130E-02      79   55    1       0.6998842312E+01      0.7045181688E+01      0.8729301671E+03      0.6880303130E-02

    ------------------------------------------------
       NWT REQUIRED            4 OUTER ITERATIONS 
       AND A TOTAL OF         26 INNER ITERATIONS.
    ------------------------------------------------

 NO OUTPUT CONTROL FOR STRESS PERIOD   39   TIME STEP    9
 
 SOLVING FOR HEAD 
                                                   Max.-Head-Change                        Max.-Flux-Residual
  Residual-Control   Outer-Iter.   Inner-Iter.     Column Row Layer    Max.-Head-Change    Column Row Layer    Max.-Flux-Residual            L2-New               L2-Old           Solver-Max-Delh
          0                 1          10            81   45     1       0.3250585925E+01      81   46    1       0.9682794326E+05      0.3677666900E+06      0.7045181688E+01      0.3250585925E+01
          0                 2           9            81   45     1      -0.2958310836E+00      81   46    1      -0.9700840287E+04      0.3676666302E+05      0.3677666900E+06     -0.2958310836E+00
          0                 3           5            56   98     2       0.1735332215E-02      15   39    3      -0.1012870956E+02      0.2489044136E+02      0.3676666302E+05      0.1735332215E-02

    ------------------------------------------------
       NWT REQUIRED            3 OUTER ITERATIONS 
       AND A TOTAL OF         24 INNER ITERATIONS.
    ------------------------------------------------

 NO OUTPUT CONTROL FOR STRESS PERIOD   39   TIME STEP   10
 
 SOLVING FOR HEAD 
                                                   Max.-Head-Change                        Max.-Flux-Residual
  Residual-Control   Outer-Iter.   Inner-Iter.     Column Row Layer    Max.-Head-Change    Column Row Layer    Max.-Flux-Residual            L2-New               L2-Old           Solver-Max-Delh
          0                 1          10            81   45     1       0.3131848196E+01      81   46    1       0.9365485647E+05      0.3538800366E+06      0.2489044136E+02      0.3131848196E+01
          0                 2           9            81   45     1      -0.2850367772E+00      81   46    1      -0.9382120837E+04      0.3541161734E+05      0.3538800366E+06     -0.2850367772E+00
          0                 3           5            56   98     2       0.1531897954E-02      19   34    2      -0.1678803342E+02      0.2816822672E+02      0.3541161734E+05      0.1531897954E-02

    ------------------------------------------------
       NWT REQUIRED            3 OUTER ITERATIONS 
       AND A TOTAL OF         24 INNER ITERATIONS.
    ------------------------------------------------

 NO OUTPUT CONTROL FOR STRESS PERIOD   39   TIME STEP   11
 
 SOLVING FOR HEAD 
                                                   Max.-Head-Change                        Max.-Flux-Residual
  Residual-Control   Outer-Iter.   Inner-Iter.     Column Row Layer    Max.-Head-Change    Column Row Layer    Max.-Flux-Residual            L2-New               L2-Old           Solver-Max-Delh
          0                 1          10            81   45     1       0.3018454832E+01      81   46    1       0.9059029239E+05      0.3416971485E+06      0.2816822672E+02      0.3018454832E+01
          0                 2           9            80   45     1      -0.3662759702E+00      80   45    1      -0.1139979109E+05      0.3642259075E+05      0.3416971485E+06     -0.3662759702E+00
          0                 3           5            73   98     2       0.2243482040E-02      73   98    2       0.7807852101E+01      0.2205543118E+02      0.3642259075E+05      0.2243482040E-02

    ------------------------------------------------
       NWT REQUIRED            3 OUTER ITERATIONS 
       AND A TOTAL OF         24 INNER ITERATIONS.
    ------------------------------------------------

 OUTPUT CONTROL FOR STRESS PERIOD   39   TIME STEP   12
    SAVE BUDGET
 UBDSV1 SAVING "         STORAGE" ON UNIT  39 AT TIME STEP 12, STRESS PERIOD  39
 UBDSV2 SAVING "   CONSTANT HEAD" ON UNIT  39 AT TIME STEP 12, STRESS PERIOD  39
 UBDSV1 SAVING "FLOW RIGHT FACE " ON UNIT  39 AT TIME STEP 12, STRESS PERIOD  39
 UBDSV1 SAVING "FLOW FRONT FACE " ON UNIT  39 AT TIME STEP 12, STRESS PERIOD  39
 UBDSV1 SAVING "FLOW LOWER FACE " ON UNIT  39 AT TIME STEP 12, STRESS PERIOD  39
 UBDSV4 SAVING "           WELLS" ON UNIT  39 AT TIME STEP 12, STRESS PERIOD  39
 UBDSV3 SAVING "              ET" ON UNIT  39 AT TIME STEP 12, STRESS PERIOD  39
 UBDSV3 SAVING "        RECHARGE" ON UNIT  39 AT TIME STEP 12, STRESS PERIOD  39
1
  VOLUMETRIC BUDGET FOR ENTIRE MODEL AT END OF TIME STEP   12, STRESS PERIOD  39
  ------------------------------------------------------------------------------

     CUMULATIVE VOLUMES      L**3       RATES FOR THIS TIME STEP      L**3/T
     ------------------                 ------------------------

           IN:                                      IN:
           ---                                      ---
             STORAGE     =257857486848.0000               STORAGE     =     9378855.0000
       CONSTANT HEAD     = 21618544640.0000         CONSTANT HEAD     =     2064896.7500
               WELLS     = 17458898944.0000                 WELLS     =     1225525.0000
                  ET     =           0.0000                    ET     =           0.0000
            RECHARGE     =256320438272.0000              RECHARGE     =    34686304.0000

                TOTAL IN =553255370752.0000                  TOTAL IN =    47355580.0000

          OUT:                                     OUT:
          ----                                     ----
             STORAGE     = 31569543168.0000               STORAGE     =     6496665.0000
       CONSTANT HEAD     = 49885020160.0000         CONSTANT HEAD     =     3263394.5000
               WELLS     =459284414464.0000                 WELLS     =    36744220.0000
                  ET     = 12515547136.0000                    ET     =      851307.0625
            RECHARGE     =           0.0000              RECHARGE     =           0.0000

               TOTAL OUT =553254518784.0000                 TOTAL OUT =    47355588.0000

                IN - OUT =      851968.0000                  IN - OUT =          -8.0000

     PERCENT DISCREPANCY =           0.00         PERCENT DISCREPANCY =          -0.00






         TIME SUMMARY AT END OF TIME STEP   12 IN STRESS PERIOD   39
                    SECONDS     MINUTES      HOURS       DAYS        YEARS
                    -----------------------------------------------------------
   TIME STEP LENGTH 2.62800E+06  43800.      730.00      30.417     8.32763E-02
 STRESS PERIOD TIME 3.15360E+07 5.25600E+05  8760.0      365.00     0.99932    
         TOTAL TIME 1.23077E+09 2.05129E+07 3.41881E+05  14245.      39.001    
1
1
                            STRESS PERIOD NO.   40, LENGTH =   365.0000    
                            -----------------------------------------------

                              NUMBER OF TIME STEPS =    12

                               MULTIPLIER FOR DELT =     1.000

                            INITIAL TIME STEP SIZE =   30.41667    

   1595 WELLS

 REUSING SURF FROM LAST STRESS PERIOD

 REUSING EVTR FROM LAST STRESS PERIOD

 REUSING EXDP FROM LAST STRESS PERIOD



                           RECHARGE
 READING ON UNIT   16 WITH FORMAT: (15F5.0)            


     63 TIME-VARIANT SPECIFIED-HEAD CELLS
 
 SOLVING FOR HEAD 
                                                   Max.-Head-Change                        Max.-Flux-Residual
  Residual-Control   Outer-Iter.   Inner-Iter.     Column Row Layer    Max.-Head-Change    Column Row Layer    Max.-Flux-Residual            L2-New               L2-Old           Solver-Max-Delh
          0                 1          11            62   96     3      -0.7327847325E+02      62   85    3      -0.3688418524E+06      0.1214434159E+07      0.2205543118E+02     -0.7327847325E+02
          0                 2          10            60   86     3       0.1000692683E+02      58  101    3       0.1017707878E+06      0.1888585865E+06      0.1214434159E+07      0.1000692683E+02
          0                 3           6            60   86     3      -0.1330739858E+01      60   86    3      -0.1638961213E+05      0.1773722126E+05      0.1888585865E+06     -0.1330739858E+01
          0                 4           5            60   85     3      -0.1174603045E-01      59   86    3      -0.1504142487E+03      0.2554987203E+03      0.1773722126E+05     -0.1174603045E-01
          0                 5           4            60   85     3      -0.1056860357E-02      60   85    3      -0.1181620005E+02      0.1812925432E+02      0.2554987203E+03     -0.1056860357E-02

    ------------------------------------------------
       NWT REQUIRED            5 OUTER ITERATIONS 
       AND A TOTAL OF         36 INNER ITERATIONS.
    ------------------------------------------------

 NO OUTPUT CONTROL FOR STRESS PERIOD   40   TIME STEP    1
 
 SOLVING FOR HEAD 
                                                   Max.-Head-Change                        Max.-Flux-Residual
  Residual-Control   Outer-Iter.   Inner-Iter.     Column Row Layer    Max.-Head-Change    Column Row Layer    Max.-Flux-Residual            L2-New               L2-Old           Solver-Max-Delh
          0                 1          10            54  108     2      -0.1296675720E+02      56   99    3      -0.1308426859E+06      0.6135789038E+06      0.1812925432E+02     -0.1296675720E+02
          0                 2           9            54  108     2       0.9548048723E+00      60   62    1      -0.2011498460E+05      0.6611371116E+05      0.6135789038E+06      0.9548048723E+00
          0                 3           6            21   19     1      -0.2392937460E-01      21   19    1      -0.2544311434E+04      0.2546853561E+04      0.6611371116E+05     -0.2392937460E-01
          0                 4           5            21   19     1      -0.2157664923E-02      21   19    1      -0.2293274707E+03      0.2295963685E+03      0.2546853561E+04     -0.2157664923E-02

    ------------------------------------------------
       NWT REQUIRED            4 OUTER ITERATIONS 
       AND A TOTAL OF         30 INNER ITERATIONS.
    ------------------------------------------------

 NO OUTPUT CONTROL FOR STRESS PERIOD   40   TIME STEP    2
 
 SOLVING FOR HEAD 
                                                   Max.-Head-Change                        Max.-Flux-Residual
  Residual-Control   Outer-Iter.   Inner-Iter.     Column Row Layer    Max.-Head-Change    Column Row Layer    Max.-Flux-Residual            L2-New               L2-Old           Solver-Max-Delh
          0                 1          10            56   99     3      -0.4766053464E+01      54  108    3      -0.1155244008E+06      0.4851399567E+06      0.2295963685E+03     -0.4766053464E+01
          0                 2           9            56   99     3       0.4253844829E+00      21   19    1      -0.1209974516E+05      0.5055294718E+05      0.4851399567E+06      0.4253844829E+00
          0                 3           5            21   19     1       0.2001819983E-01      21   19    1       0.1200277517E+04      0.1306272656E+04      0.5055294718E+05      0.2001819983E-01
          0                 4           2            85   85     2      -0.7697348039E-04      21   19    1       0.8601394594E+00      0.9873478596E+00      0.1306272656E+04     -0.7697348039E-04

    ------------------------------------------------
       NWT REQUIRED            4 OUTER ITERATIONS 
       AND A TOTAL OF         26 INNER ITERATIONS.
    ------------------------------------------------

 NO OUTPUT CONTROL FOR STRESS PERIOD   40   TIME STEP    3
 
 SOLVING FOR HEAD 
                                                   Max.-Head-Change                        Max.-Flux-Residual
  Residual-Control   Outer-Iter.   Inner-Iter.     Column Row Layer    Max.-Head-Change    Column Row Layer    Max.-Flux-Residual            L2-New               L2-Old           Solver-Max-Delh
          0                 1          10            56   99     3      -0.4149018054E+01      56   99    3      -0.9966820846E+05      0.4166401769E+06      0.9873478596E+00     -0.4149018054E+01
          0                 2           9            58  101     2      -0.2416725654E+01      58  101    2      -0.1455770776E+05      0.4403163575E+05      0.4166401769E+06     -0.2416725654E+01
          0                 3           5            58  101     2       0.1952063292E+00      58  101    2       0.1374933663E+04      0.1422950254E+04      0.4403163575E+05      0.1952063292E+00
          0                 4           3            58  101     1       0.2071341533E-02      58  101    2       0.6284765974E+01      0.9741902042E+01      0.1422950254E+04      0.2071341533E-02

    ------------------------------------------------
       NWT REQUIRED            4 OUTER ITERATIONS 
       AND A TOTAL OF         27 INNER ITERATIONS.
    ------------------------------------------------

 NO OUTPUT CONTROL FOR STRESS PERIOD   40   TIME STEP    4
 
 SOLVING FOR HEAD 
                                                   Max.-Head-Change                        Max.-Flux-Residual
  Residual-Control   Outer-Iter.   Inner-Iter.     Column Row Layer    Max.-Head-Change    Column Row Layer    Max.-Flux-Residual            L2-New               L2-Old           Solver-Max-Delh
          0                 1          10            56   99     3      -0.3638772106E+01      56   99    3      -0.8676905620E+05      0.3747502842E+06      0.9741902042E+01     -0.3638772106E+01
          0                 2           8            58  101     2       0.4381128522E+00      56   99    3       0.8613006355E+04      0.3884258493E+05      0.3747502842E+06      0.4381128522E+00
          0                 3           5            56   74     1       0.2145889551E-01      61   60    2       0.8689082852E+03      0.9042794530E+03      0.3884258493E+05      0.2145889551E-01
          0                 4           3            61   60     2       0.1019003402E-02      61   60    2       0.7819649987E+02      0.7821425578E+02      0.9042794530E+03      0.1019003402E-02

    ------------------------------------------------
       NWT REQUIRED            4 OUTER ITERATIONS 
       AND A TOTAL OF         26 INNER ITERATIONS.
    ------------------------------------------------

 NO OUTPUT CONTROL FOR STRESS PERIOD   40   TIME STEP    5
 
 SOLVING FOR HEAD 
                                                   Max.-Head-Change                        Max.-Flux-Residual
  Residual-Control   Outer-Iter.   Inner-Iter.     Column Row Layer    Max.-Head-Change    Column Row Layer    Max.-Flux-Residual            L2-New               L2-Old           Solver-Max-Delh
          0                 1          10            56   99     3      -0.3209498591E+01      56   99    3      -0.7607357003E+05      0.3466170946E+06      0.7821425578E+02     -0.3209498591E+01
          0                 2           8            56   99     3       0.2871854505E+00      56   99    3       0.7559026130E+04      0.3506289005E+05      0.3466170946E+06      0.2871854505E+00
          0                 3           5            61   60     2      -0.7542519465E-02      61   60    2      -0.3610772444E+03      0.3806718277E+03      0.3506289005E+05     -0.7542519465E-02

    ------------------------------------------------
       NWT REQUIRED            3 OUTER ITERATIONS 
       AND A TOTAL OF         23 INNER ITERATIONS.
    ------------------------------------------------

 NO OUTPUT CONTROL FOR STRESS PERIOD   40   TIME STEP    6
 
 SOLVING FOR HEAD 
                                                   Max.-Head-Change                        Max.-Flux-Residual
  Residual-Control   Outer-Iter.   Inner-Iter.     Column Row Layer    Max.-Head-Change    Column Row Layer    Max.-Flux-Residual            L2-New               L2-Old           Solver-Max-Delh
          0                 1          10            56   99     3      -0.2845290902E+01      56   99    3      -0.6709364564E+05      0.3264029464E+06      0.3806718277E+03     -0.2845290902E+01
          0                 2           8            56   99     3       0.2547540996E+00      13   12    2       0.1060177164E+05      0.3522015504E+05      0.3264029464E+06      0.2547540996E+00
          0                 3           5            79   53     1       0.1723460419E-01      79   53    1       0.5529331283E+02      0.7175304662E+02      0.3522015504E+05      0.1723460419E-01
          0                 4           2            79   53     1       0.2366014939E-03      79   53    1       0.7292387681E+00      0.7792600908E+00      0.7175304662E+02      0.2366014939E-03

    ------------------------------------------------
       NWT REQUIRED            4 OUTER ITERATIONS 
       AND A TOTAL OF         25 INNER ITERATIONS.
    ------------------------------------------------

 NO OUTPUT CONTROL FOR STRESS PERIOD   40   TIME STEP    7
 
 SOLVING FOR HEAD 
                                                   Max.-Head-Change                        Max.-Flux-Residual
  Residual-Control   Outer-Iter.   Inner-Iter.     Column Row Layer    Max.-Head-Change    Column Row Layer    Max.-Flux-Residual            L2-New               L2-Old           Solver-Max-Delh
          0                 1          10            56   99     3      -0.2533570164E+01      56   99    3      -0.5947472023E+05      0.3111746380E+06      0.7792600908E+00     -0.2533570164E+01
          0                 2           8            56   99     3       0.2269630160E+00      15   13    1      -0.6090252096E+04      0.3167383410E+05      0.3111746380E+06      0.2269630160E+00
          0                 3           5            15   13     1       0.6571862661E-02      15   13    1       0.6040905669E+03      0.6394943566E+03      0.3167383410E+05      0.6571862661E-02

    ------------------------------------------------
       NWT REQUIRED            3 OUTER ITERATIONS 
       AND A TOTAL OF         23 INNER ITERATIONS.
    ------------------------------------------------

 NO OUTPUT CONTROL FOR STRESS PERIOD   40   TIME STEP    8
 
 SOLVING FOR HEAD 
                                                   Max.-Head-Change                        Max.-Flux-Residual
  Residual-Control   Outer-Iter.   Inner-Iter.     Column Row Layer    Max.-Head-Change    Column Row Layer    Max.-Flux-Residual            L2-New               L2-Old           Solver-Max-Delh
          0                 1          10            56   99     3      -0.2264897597E+01      56   99    3      -0.5295488525E+05      0.2994665850E+06      0.6394943566E+03     -0.2264897597E+01
          0                 2           8            56   99     3       0.2029845584E+00      56   99    3       0.5273724689E+04      0.2996543623E+05      0.2994665850E+06      0.2029845584E+00
          0                 3           5            33   30     2       0.4703862905E-02      33   30    2       0.2733922454E+03      0.2816196102E+03      0.2996543623E+05      0.4703862905E-02

    ------------------------------------------------
       NWT REQUIRED            3 OUTER ITERATIONS 
       AND A TOTAL OF         23 INNER ITERATIONS.
    ------------------------------------------------

 NO OUTPUT CONTROL FOR STRESS PERIOD   40   TIME STEP    9
 
 SOLVING FOR HEAD 
                                                   Max.-Head-Change                        Max.-Flux-Residual
  Residual-Control   Outer-Iter.   Inner-Iter.     Column Row Layer    Max.-Head-Change    Column Row Layer    Max.-Flux-Residual            L2-New               L2-Old           Solver-Max-Delh
          0                 1          10            56   99     3      -0.2031987211E+01      56   99    3      -0.4733620200E+05      0.2899639589E+06      0.2816196102E+03     -0.2031987211E+01
          0                 2           8            56   99     3       0.1821787973E+00      56   99    3       0.4716743011E+04      0.2922786312E+05      0.2899639589E+06      0.1821787973E+00
          0                 3           5            33   30     2      -0.3377866072E-02      20   18    2      -0.1995498606E+03      0.3143418514E+03      0.2922786312E+05     -0.3377866072E-02

    ------------------------------------------------
       NWT REQUIRED            3 OUTER ITERATIONS 
       AND A TOTAL OF         23 INNER ITERATIONS.
    ------------------------------------------------

 NO OUTPUT CONTROL FOR STRESS PERIOD   40   TIME STEP   10
 
 SOLVING FOR HEAD 
                                                   Max.-Head-Change                        Max.-Flux-Residual
  Residual-Control   Outer-Iter.   Inner-Iter.     Column Row Layer    Max.-Head-Change    Column Row Layer    Max.-Flux-Residual            L2-New               L2-Old           Solver-Max-Delh
          0                 1          10            56   99     3      -0.1829095169E+01      56   99    3      -0.4246600350E+05      0.2821093060E+06      0.3143418514E+03     -0.1829095169E+01
          0                 2           9            54  107     2      -0.5899411007E+00      59  101    2       0.8767610672E+04      0.2966781125E+05      0.2821093060E+06     -0.5899411007E+00
          0                 3           4            54  107     2       0.4401158468E-01      54  107    3      -0.1155757786E+03      0.1578961828E+03      0.2966781125E+05      0.4401158468E-01
          0                 4           2            54  107     2       0.7189928179E-03      54  107    3      -0.1835597590E+01      0.2614286272E+01      0.1578961828E+03      0.7189928179E-03

    ------------------------------------------------
       NWT REQUIRED            4 OUTER ITERATIONS 
       AND A TOTAL OF         25 INNER ITERATIONS.
    ------------------------------------------------

 NO OUTPUT CONTROL FOR STRESS PERIOD   40   TIME STEP   11
 
 SOLVING FOR HEAD 
                                                   Max.-Head-Change                        Max.-Flux-Residual
  Residual-Control   Outer-Iter.   Inner-Iter.     Column Row Layer    Max.-Head-Change    Column Row Layer    Max.-Flux-Residual            L2-New               L2-Old           Solver-Max-Delh
          0                 1          10            54  107     2      -0.7041428518E+01      56   99    3      -0.3822299922E+05      0.2754797183E+06      0.2614286272E+01     -0.7041428518E+01
          0                 2           9            54  107     2       0.5248082311E+00      60   61    1      -0.8270701745E+04      0.2894589468E+05      0.2754797183E+06      0.5248082311E+00
          0                 3           5            30   42     2       0.2210551423E-01      59  101    1       0.2419215837E+03      0.2600790857E+03      0.2894589468E+05      0.2210551423E-01
          0                 4           3            30   42     1       0.5574887450E-03      59   86    3      -0.9369636383E+00      0.1350886768E+01      0.2600790857E+03      0.5574887450E-03

    ------------------------------------------------
       NWT REQUIRED            4 OUTER ITERATIONS 
       AND A TOTAL OF         27 INNER ITERATIONS.
    ------------------------------------------------

 OUTPUT CONTROL FOR STRESS PERIOD   40   TIME STEP   12
    SAVE BUDGET
 UBDSV1 SAVING "         STORAGE" ON UNIT  39 AT TIME STEP 12, STRESS PERIOD  40
 UBDSV2 SAVING "   CONSTANT HEAD" ON UNIT  39 AT TIME STEP 12, STRESS PERIOD  40
 UBDSV1 SAVING "FLOW RIGHT FACE " ON UNIT  39 AT TIME STEP 12, STRESS PERIOD  40
 UBDSV1 SAVING "FLOW FRONT FACE " ON UNIT  39 AT TIME STEP 12, STRESS PERIOD  40
 UBDSV1 SAVING "FLOW LOWER FACE " ON UNIT  39 AT TIME STEP 12, STRESS PERIOD  40
 UBDSV4 SAVING "           WELLS" ON UNIT  39 AT TIME STEP 12, STRESS PERIOD  40
 UBDSV3 SAVING "              ET" ON UNIT  39 AT TIME STEP 12, STRESS PERIOD  40
 UBDSV3 SAVING "        RECHARGE" ON UNIT  39 AT TIME STEP 12, STRESS PERIOD  40
1
  VOLUMETRIC BUDGET FOR ENTIRE MODEL AT END OF TIME STEP   12, STRESS PERIOD  40
  ------------------------------------------------------------------------------

     CUMULATIVE VOLUMES      L**3       RATES FOR THIS TIME STEP      L**3/T
     ------------------                 ------------------------

           IN:                                      IN:
           ---                                      ---
             STORAGE     =262805651456.0000               STORAGE     =    12220250.0000
       CONSTANT HEAD     = 22420099072.0000         CONSTANT HEAD     =     2262597.7500
               WELLS     = 17906206720.0000                 WELLS     =     1225525.0000
                  ET     =           0.0000                    ET     =           0.0000
            RECHARGE     =266479370240.0000              RECHARGE     =    27832940.0000

                TOTAL IN =569611321344.0000                  TOTAL IN =    43541312.0000

          OUT:                                     OUT:
          ----                                     ----
             STORAGE     = 32736993280.0000               STORAGE     =     2127584.7500
       CONSTANT HEAD     = 50975477760.0000         CONSTANT HEAD     =     2868549.2500
               WELLS     =473147244544.0000                 WELLS     =    37980848.0000
                  ET     = 12750685184.0000                    ET     =      564338.0000
            RECHARGE     =           0.0000              RECHARGE     =           0.0000

               TOTAL OUT =569610403840.0000                 TOTAL OUT =    43541320.0000

                IN - OUT =      917504.0000                  IN - OUT =          -8.0000

     PERCENT DISCREPANCY =           0.00         PERCENT DISCREPANCY =          -0.00






         TIME SUMMARY AT END OF TIME STEP   12 IN STRESS PERIOD   40
                    SECONDS     MINUTES      HOURS       DAYS        YEARS
                    -----------------------------------------------------------
   TIME STEP LENGTH 2.62800E+06  43800.      730.00      30.417     8.32763E-02
 STRESS PERIOD TIME 3.15360E+07 5.25600E+05  8760.0      365.00     0.99932    
         TOTAL TIME 1.26231E+09 2.10385E+07 3.50641E+05  14610.      40.000    
1
1
                            STRESS PERIOD NO.   41, LENGTH =   366.0000    
                            -----------------------------------------------

                              NUMBER OF TIME STEPS =    12

                               MULTIPLIER FOR DELT =     1.000

                            INITIAL TIME STEP SIZE =   30.50000    

   1614 WELLS

 REUSING SURF FROM LAST STRESS PERIOD

 REUSING EVTR FROM LAST STRESS PERIOD

 REUSING EXDP FROM LAST STRESS PERIOD



                           RECHARGE
 READING ON UNIT   16 WITH FORMAT: (15F5.0)            


     63 TIME-VARIANT SPECIFIED-HEAD CELLS
 
 SOLVING FOR HEAD 
                                                   Max.-Head-Change                        Max.-Flux-Residual
  Residual-Control   Outer-Iter.   Inner-Iter.     Column Row Layer    Max.-Head-Change    Column Row Layer    Max.-Flux-Residual            L2-New               L2-Old           Solver-Max-Delh
          0                 1          11            62   87     3      -0.4507777695E+02      56   98    3       0.3650822823E+06      0.1320810108E+07      0.1350886768E+01     -0.4507777695E+02
          0                 2           9            55  108     3       0.4873587205E+01      55  108    3       0.2293128370E+06      0.2926724618E+06      0.1320810108E+07      0.4873587205E+01
          0                 3           6            65    2     2      -0.7604427686E-01      54  108    3      -0.7604494728E+03      0.1422150469E+04      0.2926724618E+06     -0.7604427686E-01
          0                 4           5            65    2     2      -0.4404946574E-02      15   15    1      -0.5348078609E+02      0.5914731209E+02      0.1422150469E+04     -0.4404946574E-02

    ------------------------------------------------
       NWT REQUIRED            4 OUTER ITERATIONS 
       AND A TOTAL OF         31 INNER ITERATIONS.
    ------------------------------------------------

 NO OUTPUT CONTROL FOR STRESS PERIOD   41   TIME STEP    1
 
 SOLVING FOR HEAD 
                                                   Max.-Head-Change                        Max.-Flux-Residual
  Residual-Control   Outer-Iter.   Inner-Iter.     Column Row Layer    Max.-Head-Change    Column Row Layer    Max.-Flux-Residual            L2-New               L2-Old           Solver-Max-Delh
          0                 1          10            56   98     3       0.1286519051E+02      56   98    3       0.3040022442E+06      0.8296418239E+06      0.5914731209E+02      0.1286519051E+02
          0                 2           9            23   46     2      -0.1112509873E+02      56   98    3      -0.2458465531E+05      0.8421509346E+05      0.8296418239E+06     -0.1112509873E+02
          0                 3           7            23   46     2       0.9210234639E+00      57  103    2      -0.3806925144E+04      0.4573893326E+04      0.8421509346E+05      0.9210234639E+00
          0                 4           5            57  103     1      -0.1001033418E-01      57  103    2      -0.3431251058E+03      0.3451062605E+03      0.4573893326E+04     -0.1001033418E-01
          0                 5           3            57  103     1      -0.9153712778E-03      57  103    2      -0.3085107087E+02      0.3099598015E+02      0.3451062605E+03     -0.9153712778E-03

    ------------------------------------------------
       NWT REQUIRED            5 OUTER ITERATIONS 
       AND A TOTAL OF         34 INNER ITERATIONS.
    ------------------------------------------------

 NO OUTPUT CONTROL FOR STRESS PERIOD   41   TIME STEP    2
 
 SOLVING FOR HEAD 
                                                   Max.-Head-Change                        Max.-Flux-Residual
  Residual-Control   Outer-Iter.   Inner-Iter.     Column Row Layer    Max.-Head-Change    Column Row Layer    Max.-Flux-Residual            L2-New               L2-Old           Solver-Max-Delh
          0                 1          10            56   98     3       0.1194139160E+02      56   98    3       0.2723135590E+06      0.6946088615E+06      0.3099598015E+02      0.1194139160E+02
          0                 2           9            70   19     1      -0.1568435382E+01      70   19    1      -0.5775268463E+05      0.9163020273E+05      0.6946088615E+06     -0.1568435382E+01
          0                 3           6            57  103     2       0.1167624367E+00      24   46    2      -0.9975473674E+03      0.1386894857E+04      0.9163020273E+05      0.1167624367E+00
          0                 4           4            24   46     1      -0.4258903550E-02      24   46    2      -0.8994428720E+02      0.9210414245E+02      0.1386894857E+04     -0.4258903550E-02

    ------------------------------------------------
       NWT REQUIRED            4 OUTER ITERATIONS 
       AND A TOTAL OF         29 INNER ITERATIONS.
    ------------------------------------------------

 NO OUTPUT CONTROL FOR STRESS PERIOD   41   TIME STEP    3
 
 SOLVING FOR HEAD 
                                                   Max.-Head-Change                        Max.-Flux-Residual
  Residual-Control   Outer-Iter.   Inner-Iter.     Column Row Layer    Max.-Head-Change    Column Row Layer    Max.-Flux-Residual            L2-New               L2-Old           Solver-Max-Delh
          0                 1          10            56   98     3       0.1085065030E+02      56   98    3       0.2481338301E+06      0.6256091040E+06      0.9210414245E+02      0.1085065030E+02
          0                 2           9            55  108     2      -0.6585454274E+01      55  108    2      -0.3427766863E+05      0.7248491035E+05      0.6256091040E+06     -0.6585454274E+01
          0                 3           6            55  108     2       0.5633918627E+00      55  108    2       0.3230283207E+04      0.3418571235E+04      0.7248491035E+05      0.5633918627E+00
          0                 4           4            55  108     2       0.3017857416E-02      55  108    2       0.1687919438E+02      0.1815483330E+02      0.3418571235E+04      0.3017857416E-02

    ------------------------------------------------
       NWT REQUIRED            4 OUTER ITERATIONS 
       AND A TOTAL OF         29 INNER ITERATIONS.
    ------------------------------------------------

 NO OUTPUT CONTROL FOR STRESS PERIOD   41   TIME STEP    4
 
 SOLVING FOR HEAD 
                                                   Max.-Head-Change                        Max.-Flux-Residual
  Residual-Control   Outer-Iter.   Inner-Iter.     Column Row Layer    Max.-Head-Change    Column Row Layer    Max.-Flux-Residual            L2-New               L2-Old           Solver-Max-Delh
          0                 1          10            56   98     3       0.9840887862E+01      56   98    3       0.2255497215E+06      0.5813667840E+06      0.1815483330E+02      0.9840887862E+01
          0                 2           9            56   98     3      -0.9032292288E+00      56   98    3      -0.2314726205E+05      0.5919365227E+05      0.5813667840E+06     -0.9032292288E+00
          0                 3           5            66   25     2      -0.3367978709E-01      66   25    2      -0.7941465028E+03      0.8173817464E+03      0.5919365227E+05     -0.3367978709E-01
          0                 4           2            85   85     2      -0.8529372388E-04      71   20    2      -0.2658126932E+00      0.4933856917E+00      0.8173817464E+03     -0.8529372388E-04

    ------------------------------------------------
       NWT REQUIRED            4 OUTER ITERATIONS 
       AND A TOTAL OF         26 INNER ITERATIONS.
    ------------------------------------------------

 NO OUTPUT CONTROL FOR STRESS PERIOD   41   TIME STEP    5
 
 SOLVING FOR HEAD 
                                                   Max.-Head-Change                        Max.-Flux-Residual
  Residual-Control   Outer-Iter.   Inner-Iter.     Column Row Layer    Max.-Head-Change    Column Row Layer    Max.-Flux-Residual            L2-New               L2-Old           Solver-Max-Delh
          0                 1          10            56   98     3       0.8912531080E+01      56   98    3       0.2046273260E+06      0.5501491456E+06      0.4933856917E+00      0.8912531080E+01
          0                 2           9            73   15     3       0.1281055780E+01      56   98    3      -0.2094615043E+05      0.5744762152E+05      0.5501491456E+06      0.1281055780E+01
          0                 3           6            73   15     3      -0.9294295732E-01      73   15    3      -0.7501263627E+03      0.9617695260E+03      0.5744762152E+05     -0.9294295732E-01
          0                 4           4            22   17     1      -0.4761010184E-03      22   17    1      -0.4819035688E+02      0.4819866660E+02      0.9617695260E+03     -0.4761010184E-03

    ------------------------------------------------
       NWT REQUIRED            4 OUTER ITERATIONS 
       AND A TOTAL OF         29 INNER ITERATIONS.
    ------------------------------------------------

 NO OUTPUT CONTROL FOR STRESS PERIOD   41   TIME STEP    6
 
 SOLVING FOR HEAD 
                                                   Max.-Head-Change                        Max.-Flux-Residual
  Residual-Control   Outer-Iter.   Inner-Iter.     Column Row Layer    Max.-Head-Change    Column Row Layer    Max.-Flux-Residual            L2-New               L2-Old           Solver-Max-Delh
          0                 1          10            56   98     3       0.8063987914E+01      56   98    3       0.1853790072E+06      0.5253804883E+06      0.4819866660E+02      0.8063987914E+01
          0                 2           9            56  105     2      -0.3147723659E+01      56   98    3      -0.1893137478E+05      0.5605664140E+05      0.5253804883E+06     -0.3147723659E+01
          0                 3           5            56  105     2       0.2670461561E+00      56  105    2       0.1358583331E+04      0.1514322369E+04      0.5605664140E+05      0.2670461561E+00
          0                 4           3            56  105     2       0.1648044399E-02      56  105    2       0.8170080308E+01      0.8776175505E+01      0.1514322369E+04      0.1648044399E-02

    ------------------------------------------------
       NWT REQUIRED            4 OUTER ITERATIONS 
       AND A TOTAL OF         27 INNER ITERATIONS.
    ------------------------------------------------

 NO OUTPUT CONTROL FOR STRESS PERIOD   41   TIME STEP    7
 
 SOLVING FOR HEAD 
                                                   Max.-Head-Change                        Max.-Flux-Residual
  Residual-Control   Outer-Iter.   Inner-Iter.     Column Row Layer    Max.-Head-Change    Column Row Layer    Max.-Flux-Residual            L2-New               L2-Old           Solver-Max-Delh
          0                 1          10            56   98     3       0.7292177680E+01      56   98    3       0.1677750591E+06      0.5059204688E+06      0.8776175505E+01      0.7292177680E+01
          0                 2           9            56   98     3      -0.6653870739E+00      56   98    3      -0.1709719369E+05      0.5148228065E+05      0.5059204688E+06     -0.6653870739E+00
          0                 3           5            27   67     2       0.3575202027E-01      27   67    2       0.2217515449E+03      0.2793884767E+03      0.5148228065E+05      0.3575202027E-01
          0                 4           3            66   43     3       0.1866188106E-02      66   43    3       0.2788987767E+01      0.3081422603E+01      0.2793884767E+03      0.1866188106E-02

    ------------------------------------------------
       NWT REQUIRED            4 OUTER ITERATIONS 
       AND A TOTAL OF         27 INNER ITERATIONS.
    ------------------------------------------------

 NO OUTPUT CONTROL FOR STRESS PERIOD   41   TIME STEP    8
 
 SOLVING FOR HEAD 
                                                   Max.-Head-Change                        Max.-Flux-Residual
  Residual-Control   Outer-Iter.   Inner-Iter.     Column Row Layer    Max.-Head-Change    Column Row Layer    Max.-Flux-Residual            L2-New               L2-Old           Solver-Max-Delh
          0                 1          10            56   98     3       0.6592990704E+01      56   98    3       0.1517544559E+06      0.4895464674E+06      0.3081422603E+01      0.6592990704E+01
          0                 2           9            24   47     2      -0.1272718545E+01      56   98    3      -0.1543493124E+05      0.5091259879E+05      0.4895464674E+06     -0.1272718545E+01
          0                 3           6            24   47     2       0.1007889856E+00      48   34    1       0.6741512195E+03      0.8180879636E+03      0.5091259879E+05      0.1007889856E+00
          0                 4           4            24   47     1       0.1195174457E-02      24   47    1       0.2112388775E+01      0.3575583857E+01      0.8180879636E+03      0.1195174457E-02

    ------------------------------------------------
       NWT REQUIRED            4 OUTER ITERATIONS 
       AND A TOTAL OF         29 INNER ITERATIONS.
    ------------------------------------------------

 NO OUTPUT CONTROL FOR STRESS PERIOD   41   TIME STEP    9
 
 SOLVING FOR HEAD 
                                                   Max.-Head-Change                        Max.-Flux-Residual
  Residual-Control   Outer-Iter.   Inner-Iter.     Column Row Layer    Max.-Head-Change    Column Row Layer    Max.-Flux-Residual            L2-New               L2-Old           Solver-Max-Delh
          0                 1          10            56   98     3       0.5961665192E+01      56   98    3       0.1372342897E+06      0.4751934668E+06      0.3575583857E+01      0.5961665192E+01
          0                 2           9            56   98     3      -0.5423426598E+00      56   98    3      -0.1393399845E+05      0.4849352486E+05      0.4751934668E+06     -0.5423426598E+00
          0                 3           6            73   98     1       0.2843782550E-01      44   34    1      -0.1833939168E+04      0.1836720596E+04      0.4849352486E+05      0.2843782550E-01
          0                 4           5            44   34     1      -0.1290937941E-02      44   34    1      -0.1651023034E+03      0.1652470428E+03      0.1836720596E+04     -0.1290937941E-02

    ------------------------------------------------
       NWT REQUIRED            4 OUTER ITERATIONS 
       AND A TOTAL OF         30 INNER ITERATIONS.
    ------------------------------------------------

 NO OUTPUT CONTROL FOR STRESS PERIOD   41   TIME STEP   10
 
 SOLVING FOR HEAD 
                                                   Max.-Head-Change                        Max.-Flux-Residual
  Residual-Control   Outer-Iter.   Inner-Iter.     Column Row Layer    Max.-Head-Change    Column Row Layer    Max.-Flux-Residual            L2-New               L2-Old           Solver-Max-Delh
          0                 1          10            56   98     3       0.5393097513E+01      56   98    3       0.1241177718E+06      0.4632824078E+06      0.1652470428E+03      0.5393097513E+01
          0                 2           9            76   55     1      -0.8181379032E+00      62   94    1      -0.1551540341E+05      0.5221993253E+05      0.4632824078E+06     -0.8181379032E+00
          0                 3           6            76   55     1       0.6941739486E-01      62   94    1       0.1511601753E+04      0.2540502941E+04      0.5221993253E+05      0.6941739486E-01
          0                 4           5            15   14     1      -0.9803462591E-03      15   14    1      -0.1287578150E+03      0.1289640934E+03      0.2540502941E+04     -0.9803462591E-03

    ------------------------------------------------
       NWT REQUIRED            4 OUTER ITERATIONS 
       AND A TOTAL OF         30 INNER ITERATIONS.
    ------------------------------------------------

 NO OUTPUT CONTROL FOR STRESS PERIOD   41   TIME STEP   11
 
 SOLVING FOR HEAD 
                                                   Max.-Head-Change                        Max.-Flux-Residual
  Residual-Control   Outer-Iter.   Inner-Iter.     Column Row Layer    Max.-Head-Change    Column Row Layer    Max.-Flux-Residual            L2-New               L2-Old           Solver-Max-Delh
          0                 1          10            56   98     3       0.4882074896E+01      56   98    3       0.1123005743E+06      0.4537049342E+06      0.1289640934E+03      0.4882074896E+01
          0                 2           9            75   56     1      -0.6627657921E+00      69   21    1      -0.1806995936E+05      0.4926159603E+05      0.4537049342E+06     -0.6627657921E+00
          0                 3           6            75   56     1       0.5740028216E-01      15   14    1       0.5272730206E+03      0.6128438694E+03      0.4926159603E+05      0.5740028216E-01
          0                 4           2            75   56     1       0.2560874054E-03      75   56    1       0.1075156331E+01      0.1166957715E+01      0.6128438694E+03      0.2560874054E-03

    ------------------------------------------------
       NWT REQUIRED            4 OUTER ITERATIONS 
       AND A TOTAL OF         27 INNER ITERATIONS.
    ------------------------------------------------

 OUTPUT CONTROL FOR STRESS PERIOD   41   TIME STEP   12
    SAVE BUDGET
 UBDSV1 SAVING "         STORAGE" ON UNIT  39 AT TIME STEP 12, STRESS PERIOD  41
 UBDSV2 SAVING "   CONSTANT HEAD" ON UNIT  39 AT TIME STEP 12, STRESS PERIOD  41
 UBDSV1 SAVING "FLOW RIGHT FACE " ON UNIT  39 AT TIME STEP 12, STRESS PERIOD  41
 UBDSV1 SAVING "FLOW FRONT FACE " ON UNIT  39 AT TIME STEP 12, STRESS PERIOD  41
 UBDSV1 SAVING "FLOW LOWER FACE " ON UNIT  39 AT TIME STEP 12, STRESS PERIOD  41
 UBDSV4 SAVING "           WELLS" ON UNIT  39 AT TIME STEP 12, STRESS PERIOD  41
 UBDSV3 SAVING "              ET" ON UNIT  39 AT TIME STEP 12, STRESS PERIOD  41
 UBDSV3 SAVING "        RECHARGE" ON UNIT  39 AT TIME STEP 12, STRESS PERIOD  41
1
  VOLUMETRIC BUDGET FOR ENTIRE MODEL AT END OF TIME STEP   12, STRESS PERIOD  41
  ------------------------------------------------------------------------------

     CUMULATIVE VOLUMES      L**3       RATES FOR THIS TIME STEP      L**3/T
     ------------------                 ------------------------

           IN:                                      IN:
           ---                                      ---
             STORAGE     =270221279232.0000               STORAGE     =    19378466.0000
       CONSTANT HEAD     = 23279693824.0000         CONSTANT HEAD     =     2393878.7500
               WELLS     = 18354743296.0000                 WELLS     =     1225525.0000
                  ET     =           0.0000                    ET     =           0.0000
            RECHARGE     =274213339136.0000              RECHARGE     =    21131138.0000

                TOTAL IN =586069049344.0000                  TOTAL IN =    44129008.0000

          OUT:                                     OUT:
          ----                                     ----
             STORAGE     = 33870858240.0000               STORAGE     =     2368235.0000
       CONSTANT HEAD     = 52002336768.0000         CONSTANT HEAD     =     2719611.0000
               WELLS     =487249051648.0000                 WELLS     =    38527380.0000
                  ET     = 12946012160.0000                    ET     =      513788.7500
            RECHARGE     =           0.0000              RECHARGE     =           0.0000

               TOTAL OUT =586068262912.0000                 TOTAL OUT =    44129012.0000

                IN - OUT =      786432.0000                  IN - OUT =          -4.0000

     PERCENT DISCREPANCY =           0.00         PERCENT DISCREPANCY =          -0.00






         TIME SUMMARY AT END OF TIME STEP   12 IN STRESS PERIOD   41
                    SECONDS     MINUTES      HOURS       DAYS        YEARS
                    -----------------------------------------------------------
   TIME STEP LENGTH 2.63520E+06  43920.      732.00      30.500     8.35044E-02
 STRESS PERIOD TIME 3.16224E+07 5.27040E+05  8784.0      366.00      1.0021    
         TOTAL TIME 1.29393E+09 2.15655E+07 3.59425E+05  14976.      41.002    
1
1
                            STRESS PERIOD NO.   42, LENGTH =   365.0000    
                            -----------------------------------------------

                              NUMBER OF TIME STEPS =    12

                               MULTIPLIER FOR DELT =     1.000

                            INITIAL TIME STEP SIZE =   30.41667    

   1572 WELLS

 REUSING SURF FROM LAST STRESS PERIOD

 REUSING EVTR FROM LAST STRESS PERIOD

 REUSING EXDP FROM LAST STRESS PERIOD



                           RECHARGE
 READING ON UNIT   16 WITH FORMAT: (15F5.0)            


     63 TIME-VARIANT SPECIFIED-HEAD CELLS
 
 SOLVING FOR HEAD 
                                                   Max.-Head-Change                        Max.-Flux-Residual
  Residual-Control   Outer-Iter.   Inner-Iter.     Column Row Layer    Max.-Head-Change    Column Row Layer    Max.-Flux-Residual            L2-New               L2-Old           Solver-Max-Delh
          0                 1          10            84   50     3      -0.1457473050E+03      58   96    3      -0.4188734489E+06      0.1029768980E+07      0.1166957715E+01     -0.1457473050E+03
          0                 2           9            65    5     2      -0.1639930809E+02      65    5    2      -0.4346871310E+06      0.5784950038E+06      0.1029768980E+07     -0.1639930809E+02
          0                 3           7            66    5     2       0.1571281978E+01      23   46    2      -0.6923748980E+04      0.9189330879E+04      0.5784950038E+06      0.1571281978E+01
          0                 4           6            66    5     2       0.2381240941E+00      64  106    1      -0.2256305900E+03      0.4350390291E+03      0.9189330879E+04      0.2381240941E+00
          0                 5           5            66    5     2       0.3580328338E-01      64  106    1      -0.2028645273E+02      0.4250278735E+02      0.4350390291E+03      0.3580328338E-01
          0                 6           4            66    5     2       0.5379882420E-02      66    5    2       0.2243072385E+01      0.4433588444E+01      0.4250278735E+02      0.5379882420E-02

    ------------------------------------------------
       NWT REQUIRED            6 OUTER ITERATIONS 
       AND A TOTAL OF         41 INNER ITERATIONS.
    ------------------------------------------------

 NO OUTPUT CONTROL FOR STRESS PERIOD   42   TIME STEP    1
 
 SOLVING FOR HEAD 
                                                   Max.-Head-Change                        Max.-Flux-Residual
  Residual-Control   Outer-Iter.   Inner-Iter.     Column Row Layer    Max.-Head-Change    Column Row Layer    Max.-Flux-Residual            L2-New               L2-Old           Solver-Max-Delh
          0                 1          10            84   50     3      -0.2131602939E+02      58   96    3      -0.2693707405E+06      0.7315587131E+06      0.4433588444E+01     -0.2131602939E+02
          0                 2           9            70   19     2       0.2700503644E+01      73   14    1      -0.4962115144E+05      0.9559088151E+05      0.7315587131E+06      0.2700503644E+01
          0                 3           5            70   19     2      -0.2446591927E+00      70   19    2      -0.3273637904E+04      0.3473929600E+04      0.9559088151E+05     -0.2446591927E+00
          0                 4           3            26   67     1      -0.2068502445E-02      26   67    2      -0.7608407166E+02      0.7653836767E+02      0.3473929600E+04     -0.2068502445E-02

    ------------------------------------------------
       NWT REQUIRED            4 OUTER ITERATIONS 
       AND A TOTAL OF         27 INNER ITERATIONS.
    ------------------------------------------------

 NO OUTPUT CONTROL FOR STRESS PERIOD   42   TIME STEP    2
 
 SOLVING FOR HEAD 
                                                   Max.-Head-Change                        Max.-Flux-Residual
  Residual-Control   Outer-Iter.   Inner-Iter.     Column Row Layer    Max.-Head-Change    Column Row Layer    Max.-Flux-Residual            L2-New               L2-Old           Solver-Max-Delh
          0                 1          10            56   98     3      -0.8678719209E+01      56   98    3      -0.2024968336E+06      0.6395790248E+06      0.7653836767E+02     -0.8678719209E+01
          0                 2           9            70   17     2       0.1646097183E+01      56   98    3       0.1982176315E+05      0.7171844872E+05      0.6395790248E+06      0.1646097183E+01
          0                 3           5            70   17     2      -0.1495928581E+00      70   17    2      -0.1370938011E+04      0.1857400035E+04      0.7171844872E+05     -0.1495928581E+00
          0                 4           2            74   95     1       0.5864964079E-03      74   95    1       0.1385034451E+01      0.2436772060E+01      0.1857400035E+04      0.5864964079E-03

    ------------------------------------------------
       NWT REQUIRED            4 OUTER ITERATIONS 
       AND A TOTAL OF         26 INNER ITERATIONS.
    ------------------------------------------------

 NO OUTPUT CONTROL FOR STRESS PERIOD   42   TIME STEP    3
 
 SOLVING FOR HEAD 
                                                   Max.-Head-Change                        Max.-Flux-Residual
  Residual-Control   Outer-Iter.   Inner-Iter.     Column Row Layer    Max.-Head-Change    Column Row Layer    Max.-Flux-Residual            L2-New               L2-Old           Solver-Max-Delh
          0                 1          10            56   98     3      -0.7839642566E+01      56   98    3      -0.1816778533E+06      0.5907355866E+06      0.2436772060E+01     -0.7839642566E+01
          0                 2           9            56   98     3       0.6938924878E+00      56   98    3       0.1782441739E+05      0.6359406462E+05      0.5907355866E+06      0.6938924878E+00
          0                 3           6            62   91     1       0.4682848519E-01      62   91    1       0.1453908699E+04      0.2007102807E+04      0.6359406462E+05      0.4682848519E-01
          0                 4           3            85   85     2      -0.9047113602E-04      59   62    2      -0.7179765642E+01      0.7573843479E+01      0.2007102807E+04     -0.9047113602E-04

    ------------------------------------------------
       NWT REQUIRED            4 OUTER ITERATIONS 
       AND A TOTAL OF         28 INNER ITERATIONS.
    ------------------------------------------------

 NO OUTPUT CONTROL FOR STRESS PERIOD   42   TIME STEP    4
 
 SOLVING FOR HEAD 
                                                   Max.-Head-Change                        Max.-Flux-Residual
  Residual-Control   Outer-Iter.   Inner-Iter.     Column Row Layer    Max.-Head-Change    Column Row Layer    Max.-Flux-Residual            L2-New               L2-Old           Solver-Max-Delh
          0                 1          10            56   98     3      -0.7124700844E+01      56   98    3      -0.1640711858E+06      0.5606654126E+06      0.7573843479E+01     -0.7124700844E+01
          0                 2           9            55  109     2      -0.8401669817E+00      71   19    2      -0.1779881618E+05      0.6062750094E+05      0.5606654126E+06     -0.8401669817E+00
          0                 3           5            55  109     2       0.7249879286E-01      55  109    2       0.5216890594E+03      0.7707258981E+03      0.6062750094E+05      0.7249879286E-01
          0                 4           3            55  109     2       0.3387962370E-03      32   19    2       0.4185059009E+01      0.5230886528E+01      0.7707258981E+03      0.3387962370E-03

    ------------------------------------------------
       NWT REQUIRED            4 OUTER ITERATIONS 
       AND A TOTAL OF         27 INNER ITERATIONS.
    ------------------------------------------------

 NO OUTPUT CONTROL FOR STRESS PERIOD   42   TIME STEP    5
 
 SOLVING FOR HEAD 
                                                   Max.-Head-Change                        Max.-Flux-Residual
  Residual-Control   Outer-Iter.   Inner-Iter.     Column Row Layer    Max.-Head-Change    Column Row Layer    Max.-Flux-Residual            L2-New               L2-Old           Solver-Max-Delh
          0                 1          10            56   98     3      -0.6511489517E+01      56   98    3      -0.1490757135E+06      0.5407957874E+06      0.5230886528E+01     -0.6511489517E+01
          0                 2           9            59   95     1      -0.7195775899E+00      56   98    3       0.1467819202E+05      0.5582189365E+05      0.5407957874E+06     -0.7195775899E+00
          0                 3           5            59   95     2       0.6085087191E-01      59   95    2       0.5947622191E+03      0.7114253759E+03      0.5582189365E+05      0.6085087191E-01
          0                 4           3            59   95     1       0.4565025658E-03      59   95    1       0.1696124405E+01      0.2671267638E+01      0.7114253759E+03      0.4565025658E-03

    ------------------------------------------------
       NWT REQUIRED            4 OUTER ITERATIONS 
       AND A TOTAL OF         27 INNER ITERATIONS.
    ------------------------------------------------

 NO OUTPUT CONTROL FOR STRESS PERIOD   42   TIME STEP    6
 
 SOLVING FOR HEAD 
                                                   Max.-Head-Change                        Max.-Flux-Residual
  Residual-Control   Outer-Iter.   Inner-Iter.     Column Row Layer    Max.-Head-Change    Column Row Layer    Max.-Flux-Residual            L2-New               L2-Old           Solver-Max-Delh
          0                 1          10            56   98     3      -0.5982281084E+01      56   98    3      -0.1362189871E+06      0.5264053878E+06      0.2671267638E+01     -0.5982281084E+01
          0                 2           9            64   38     2      -0.2311664032E+01      62   93    2       0.4351594719E+05      0.6837856851E+05      0.5264053878E+06     -0.2311664032E+01
          0                 3           5            64   38     2       0.1188221225E+00      32   79    2       0.1552310108E+03      0.1851472808E+03      0.6837856851E+05      0.1188221225E+00
          0                 4           3            64   38     2       0.4693361007E-02      64   38    2       0.3285216229E+01      0.3694357382E+01      0.1851472808E+03      0.4693361007E-02

    ------------------------------------------------
       NWT REQUIRED            4 OUTER ITERATIONS 
       AND A TOTAL OF         27 INNER ITERATIONS.
    ------------------------------------------------

 NO OUTPUT CONTROL FOR STRESS PERIOD   42   TIME STEP    7
 
 SOLVING FOR HEAD 
                                                   Max.-Head-Change                        Max.-Flux-Residual
  Residual-Control   Outer-Iter.   Inner-Iter.     Column Row Layer    Max.-Head-Change    Column Row Layer    Max.-Flux-Residual            L2-New               L2-Old           Solver-Max-Delh
          0                 1          10            56   98     3      -0.5522886896E+01      56   98    3      -0.1251269491E+06      0.5141859990E+06      0.3694357382E+01     -0.5522886896E+01
          0                 2           9            51  103     3       0.2540917613E+02      51  103    3       0.3193468463E+05      0.6468260225E+05      0.5141859990E+06      0.2540917613E+02
          0                 3           5            51  103     3      -0.2309972065E+01      58  104    1      -0.4085053105E+04      0.5211031933E+04      0.6468260225E+05     -0.2309972065E+01
          0                 4           4            58  104     1      -0.5702147215E-02      58  104    1      -0.3680938715E+03      0.3684813948E+03      0.5211031933E+04     -0.5702147215E-02

    ------------------------------------------------
       NWT REQUIRED            4 OUTER ITERATIONS 
       AND A TOTAL OF         28 INNER ITERATIONS.
    ------------------------------------------------

 NO OUTPUT CONTROL FOR STRESS PERIOD   42   TIME STEP    8
 
 SOLVING FOR HEAD 
                                                   Max.-Head-Change                        Max.-Flux-Residual
  Residual-Control   Outer-Iter.   Inner-Iter.     Column Row Layer    Max.-Head-Change    Column Row Layer    Max.-Flux-Residual            L2-New               L2-Old           Solver-Max-Delh
          0                 1          10            51  103     3       0.1473767794E+02      56   98    3      -0.1155009835E+06      0.5039487373E+06      0.3684813948E+03      0.1473767794E+02
          0                 2           9            51  103     3      -0.1340424462E+01      62   93    1      -0.2333932335E+05      0.5820203955E+05      0.5039487373E+06     -0.1340424462E+01
          0                 3           5            62   93     1       0.8619411209E-01      67   22    2       0.2830923053E+04      0.3792670416E+04      0.5820203955E+05      0.8619411209E-01
          0                 4           4            67   22     2       0.4849729292E-02      67   22    2       0.2547331132E+03      0.2547627295E+03      0.3792670416E+04      0.4849729292E-02

    ------------------------------------------------
       NWT REQUIRED            4 OUTER ITERATIONS 
       AND A TOTAL OF         28 INNER ITERATIONS.
    ------------------------------------------------

 NO OUTPUT CONTROL FOR STRESS PERIOD   42   TIME STEP    9
 
 SOLVING FOR HEAD 
                                                   Max.-Head-Change                        Max.-Flux-Residual
  Residual-Control   Outer-Iter.   Inner-Iter.     Column Row Layer    Max.-Head-Change    Column Row Layer    Max.-Flux-Residual            L2-New               L2-Old           Solver-Max-Delh
          0                 1          10            56   98     3      -0.4770067551E+01      56   98    3      -0.1071009491E+06      0.4970046648E+06      0.2547627295E+03     -0.4770067551E+01
          0                 2           9            71   20     3       0.1240007280E+01      67   22    2       0.1064609492E+05      0.5209995186E+05      0.4970046648E+06      0.1240007280E+01
          0                 3           5            71   20     3      -0.1127299904E+00      62   92    1      -0.1183558524E+04      0.2027738260E+04      0.5209995186E+05     -0.1127299904E+00
          0                 4           3            62   92     1      -0.1642532389E-02      62   92    1      -0.1066267344E+03      0.1067529819E+03      0.2027738260E+04     -0.1642532389E-02

    ------------------------------------------------
       NWT REQUIRED            4 OUTER ITERATIONS 
       AND A TOTAL OF         27 INNER ITERATIONS.
    ------------------------------------------------

 NO OUTPUT CONTROL FOR STRESS PERIOD   42   TIME STEP   10
 
 SOLVING FOR HEAD 
                                                   Max.-Head-Change                        Max.-Flux-Residual
  Residual-Control   Outer-Iter.   Inner-Iter.     Column Row Layer    Max.-Head-Change    Column Row Layer    Max.-Flux-Residual            L2-New               L2-Old           Solver-Max-Delh
          0                 1          10            56   98     3      -0.4459852694E+01      56   98    3      -0.9973232614E+05      0.4905467621E+06      0.1067529819E+03     -0.4459852694E+01
          0                 2           9            62   92     1      -0.1081505689E+01      62   92    1      -0.2029660288E+05      0.5594488958E+05      0.4905467621E+06     -0.1081505689E+01
          0                 3           5            62   92     1       0.9598607252E-01      62   92    1       0.1986529914E+04      0.2011800499E+04      0.5594488958E+05      0.9598607252E-01
          0                 4           2            62   92     1       0.1938885965E-03      62   92    1       0.3789580613E+01      0.3855244471E+01      0.2011800499E+04      0.1938885965E-03

    ------------------------------------------------
       NWT REQUIRED            4 OUTER ITERATIONS 
       AND A TOTAL OF         26 INNER ITERATIONS.
    ------------------------------------------------

 NO OUTPUT CONTROL FOR STRESS PERIOD   42   TIME STEP   11

 INTERPOLATION FOR HEAD OBS# 1654, ID 2303-42-351  CHANGED BECAUSE AT LEAST ONE
 NEIGHBORING CELL REQUIRED FOR INTERPOLATION IS DRY OR INACTIVE (OBS2BAS7SE)

 INTERPOLATION FOR HEAD OBS# 1740, ID 2615-42-350  CHANGED BECAUSE AT LEAST ONE
 NEIGHBORING CELL REQUIRED FOR INTERPOLATION IS DRY OR INACTIVE (OBS2BAS7SE)

 INTERPOLATION FOR HEAD OBS# 1762, ID 2498-42-350  CHANGED BECAUSE AT LEAST ONE
 NEIGHBORING CELL REQUIRED FOR INTERPOLATION IS DRY OR INACTIVE (OBS2BAS7SE)

 INTERPOLATION FOR HEAD OBS# 2180, ID 2355-42-362  CHANGED BECAUSE AT LEAST ONE
 NEIGHBORING CELL REQUIRED FOR INTERPOLATION IS DRY OR INACTIVE (OBS2BAS7SE)

 INTERPOLATION FOR HEAD OBS# 2524, ID 2243-42-364  CHANGED BECAUSE AT LEAST ONE
 NEIGHBORING CELL REQUIRED FOR INTERPOLATION IS DRY OR INACTIVE (OBS2BAS7SE)

 INTERPOLATION FOR HEAD OBS# 3751, ID 1427-42-362  CHANGED BECAUSE AT LEAST ONE
 NEIGHBORING CELL REQUIRED FOR INTERPOLATION IS DRY OR INACTIVE (OBS2BAS7SE)

 INTERPOLATION FOR HEAD OBS# 7389, ID 218-42-337   CHANGED BECAUSE AT LEAST ONE
 NEIGHBORING CELL REQUIRED FOR INTERPOLATION IS DRY OR INACTIVE (OBS2BAS7SE)

 INTERPOLATION FOR HEAD OBS# 7525, ID 269-42-337   CHANGED BECAUSE AT LEAST ONE
 NEIGHBORING CELL REQUIRED FOR INTERPOLATION IS DRY OR INACTIVE (OBS2BAS7SE)
 
 SOLVING FOR HEAD 
                                                   Max.-Head-Change                        Max.-Flux-Residual
  Residual-Control   Outer-Iter.   Inner-Iter.     Column Row Layer    Max.-Head-Change    Column Row Layer    Max.-Flux-Residual            L2-New               L2-Old           Solver-Max-Delh
          0                 1          10            56   98     3      -0.4185056749E+01      56   98    3      -0.9323650387E+05      0.4859337633E+06      0.3855244471E+01     -0.4185056749E+01
          0                 2           9            56   98     3       0.3733715652E+00      62   89    2       0.1367463779E+05      0.5129181948E+05      0.4859337633E+06      0.3733715652E+00
          0                 3           5            27   66     2      -0.3838898199E-02      27   66    2      -0.1717029925E+03      0.1746633270E+03      0.5129181948E+05     -0.3838898199E-02

    ------------------------------------------------
       NWT REQUIRED            3 OUTER ITERATIONS 
       AND A TOTAL OF         24 INNER ITERATIONS.
    ------------------------------------------------

 OUTPUT CONTROL FOR STRESS PERIOD   42   TIME STEP   12
    SAVE BUDGET
 UBDSV1 SAVING "         STORAGE" ON UNIT  39 AT TIME STEP 12, STRESS PERIOD  42
 UBDSV2 SAVING "   CONSTANT HEAD" ON UNIT  39 AT TIME STEP 12, STRESS PERIOD  42
 UBDSV1 SAVING "FLOW RIGHT FACE " ON UNIT  39 AT TIME STEP 12, STRESS PERIOD  42
 UBDSV1 SAVING "FLOW FRONT FACE " ON UNIT  39 AT TIME STEP 12, STRESS PERIOD  42
 UBDSV1 SAVING "FLOW LOWER FACE " ON UNIT  39 AT TIME STEP 12, STRESS PERIOD  42
 UBDSV4 SAVING "           WELLS" ON UNIT  39 AT TIME STEP 12, STRESS PERIOD  42
 UBDSV3 SAVING "              ET" ON UNIT  39 AT TIME STEP 12, STRESS PERIOD  42
 UBDSV3 SAVING "        RECHARGE" ON UNIT  39 AT TIME STEP 12, STRESS PERIOD  42

 INTERPOLATION FOR HEAD OBS#  635, ID 3014-42-365  CHANGED BECAUSE AT LEAST ONE
 NEIGHBORING CELL REQUIRED FOR INTERPOLATION IS DRY OR INACTIVE (OBS2BAS7SE)

 INTERPOLATION FOR HEAD OBS#  648, ID 3055-43-6    CHANGED BECAUSE AT LEAST ONE
 NEIGHBORING CELL REQUIRED FOR INTERPOLATION IS DRY OR INACTIVE (OBS2BAS7SE)

 INTERPOLATION FOR HEAD OBS# 1333, ID 2852-43-5    CHANGED BECAUSE AT LEAST ONE
 NEIGHBORING CELL REQUIRED FOR INTERPOLATION IS DRY OR INACTIVE (OBS2BAS7SE)

 INTERPOLATION FOR HEAD OBS# 1337, ID 2869-43-8    CHANGED BECAUSE AT LEAST ONE
 NEIGHBORING CELL REQUIRED FOR INTERPOLATION IS DRY OR INACTIVE (OBS2BAS7SE)

 INTERPOLATION FOR HEAD OBS# 1400, ID 2840-43-5    CHANGED BECAUSE AT LEAST ONE
 NEIGHBORING CELL REQUIRED FOR INTERPOLATION IS DRY OR INACTIVE (OBS2BAS7SE)

 INTERPOLATION FOR HEAD OBS# 3694, ID 1479-43-5    CHANGED BECAUSE AT LEAST ONE
 NEIGHBORING CELL REQUIRED FOR INTERPOLATION IS DRY OR INACTIVE (OBS2BAS7SE)

 INTERPOLATION FOR HEAD OBS# 3708, ID 1471-43-5    CHANGED BECAUSE AT LEAST ONE
 NEIGHBORING CELL REQUIRED FOR INTERPOLATION IS DRY OR INACTIVE (OBS2BAS7SE)

 INTERPOLATION FOR HEAD OBS# 3768, ID 1405-43-5    CHANGED BECAUSE AT LEAST ONE
 NEIGHBORING CELL REQUIRED FOR INTERPOLATION IS DRY OR INACTIVE (OBS2BAS7SE)
1
  VOLUMETRIC BUDGET FOR ENTIRE MODEL AT END OF TIME STEP   12, STRESS PERIOD  42
  ------------------------------------------------------------------------------

     CUMULATIVE VOLUMES      L**3       RATES FOR THIS TIME STEP      L**3/T
     ------------------                 ------------------------

           IN:                                      IN:
           ---                                      ---
             STORAGE     =276957822976.0000               STORAGE     =    17743828.0000
       CONSTANT HEAD     = 24173236224.0000         CONSTANT HEAD     =     2486088.0000
               WELLS     = 18802100224.0000                 WELLS     =     1225642.0000
                  ET     =           0.0000                    ET     =           0.0000
            RECHARGE     =283282866176.0000              RECHARGE     =    24848356.0000

                TOTAL IN =603216019456.0000                  TOTAL IN =    46303912.0000

          OUT:                                     OUT:
          ----                                     ----
             STORAGE     = 35569766400.0000               STORAGE     =     4092480.5000
       CONSTANT HEAD     = 52937977856.0000         CONSTANT HEAD     =     2487120.2500
               WELLS     =501585772544.0000                 WELLS     =    39263620.0000
                  ET     = 13121851392.0000                    ET     =      460710.0938
            RECHARGE     =           0.0000              RECHARGE     =           0.0000

               TOTAL OUT =603215364096.0000                 TOTAL OUT =    46303932.0000

                IN - OUT =      655360.0000                  IN - OUT =         -20.0000

     PERCENT DISCREPANCY =           0.00         PERCENT DISCREPANCY =          -0.00






         TIME SUMMARY AT END OF TIME STEP   12 IN STRESS PERIOD   42
                    SECONDS     MINUTES      HOURS       DAYS        YEARS
                    -----------------------------------------------------------
   TIME STEP LENGTH 2.62800E+06  43800.      730.00      30.417     8.32763E-02
 STRESS PERIOD TIME 3.15360E+07 5.25600E+05  8760.0      365.00     0.99932    
         TOTAL TIME 1.32547E+09 2.20911E+07 3.68185E+05  15341.      42.001    
1
1
                            STRESS PERIOD NO.   43, LENGTH =   365.0000    
                            -----------------------------------------------

                              NUMBER OF TIME STEPS =    12

                               MULTIPLIER FOR DELT =     1.000

                            INITIAL TIME STEP SIZE =   30.41667    

   1504 WELLS

 REUSING SURF FROM LAST STRESS PERIOD

 REUSING EVTR FROM LAST STRESS PERIOD

 REUSING EXDP FROM LAST STRESS PERIOD



                           RECHARGE
 READING ON UNIT   16 WITH FORMAT: (15F5.0)            


     63 TIME-VARIANT SPECIFIED-HEAD CELLS
 
 SOLVING FOR HEAD 
                                                   Max.-Head-Change                        Max.-Flux-Residual
  Residual-Control   Outer-Iter.   Inner-Iter.     Column Row Layer    Max.-Head-Change    Column Row Layer    Max.-Flux-Residual            L2-New               L2-Old           Solver-Max-Delh
          0                 1          10            65    2     2      -0.9121824995E+02      55  115    1       0.2331674538E+06      0.1018607204E+07      0.1746633270E+03     -0.9121824995E+02
          0                 2           9            84   50     2       0.8717253920E+01      84   50    2       0.3129564508E+06      0.3300783432E+06      0.1018607204E+07      0.8717253920E+01
          0                 3           5            66   18     1       0.2327764587E+00      66   18    1       0.1894501574E+04      0.2398110912E+04      0.3300783432E+06      0.2327764587E+00
          0                 4           3            65    2     2       0.9986881548E-02      66   18    1       0.7002552193E+01      0.1056572724E+02      0.2398110912E+04      0.9986881548E-02

    ------------------------------------------------
       NWT REQUIRED            4 OUTER ITERATIONS 
       AND A TOTAL OF         27 INNER ITERATIONS.
    ------------------------------------------------

 NO OUTPUT CONTROL FOR STRESS PERIOD   43   TIME STEP    1

 INTERPOLATION FOR HEAD OBS# 7372, ID 451-43-53    CHANGED BECAUSE AT LEAST ONE
 NEIGHBORING CELL REQUIRED FOR INTERPOLATION IS DRY OR INACTIVE (OBS2BAS7SE)
 
 SOLVING FOR HEAD 
                                                   Max.-Head-Change                        Max.-Flux-Residual
  Residual-Control   Outer-Iter.   Inner-Iter.     Column Row Layer    Max.-Head-Change    Column Row Layer    Max.-Flux-Residual            L2-New               L2-Old           Solver-Max-Delh
          0                 1          10            82   53     3       0.5455587259E+01      55  108    3       0.1373291895E+06      0.6928776680E+06      0.1056572724E+02      0.5455587259E+01
          0                 2           9            62   95     2       0.1207770298E+01      62   95    2       0.7315194870E+05      0.1006980845E+06      0.6928776680E+06      0.1207770298E+01
          0                 3           6            62   96     3      -0.1040879331E+00      62   96    3      -0.4500913331E+03      0.7361103965E+03      0.1006980845E+06     -0.1040879331E+00
          0                 4           3            63   96     1      -0.1526241355E-03      63   96    1      -0.8676004976E+01      0.1102384463E+02      0.7361103965E+03     -0.1526241355E-03

    ------------------------------------------------
       NWT REQUIRED            4 OUTER ITERATIONS 
       AND A TOTAL OF         28 INNER ITERATIONS.
    ------------------------------------------------

 NO OUTPUT CONTROL FOR STRESS PERIOD   43   TIME STEP    2
 
 SOLVING FOR HEAD 
                                                   Max.-Head-Change                        Max.-Flux-Residual
  Residual-Control   Outer-Iter.   Inner-Iter.     Column Row Layer    Max.-Head-Change    Column Row Layer    Max.-Flux-Residual            L2-New               L2-Old           Solver-Max-Delh
          0                 1          10            56   99     3      -0.3438453693E+01      55  108    3       0.8975458065E+05      0.5782321768E+06      0.1102384463E+02     -0.3438453693E+01
          0                 2           9            65    6     2      -0.3040294874E+02      65    6    2      -0.1714757884E+05      0.6298124518E+05      0.5782321768E+06     -0.3040294874E+02
          0                 3           5            65    6     2       0.2423252321E+01      65    3    2      -0.2479755877E+05      0.2493467471E+05      0.6298124518E+05      0.2423252321E+01
          0                 4           3            65    6     2       0.9203599533E-01      65    3    2      -0.2243081878E+04      0.2244640426E+04      0.2493467471E+05      0.9203599533E-01
          0                 5           2            65    3     2      -0.7054132011E-02      65    3    2      -0.2017496001E+03      0.2018870261E+03      0.2244640426E+04     -0.7054132011E-02

    ------------------------------------------------
       NWT REQUIRED            5 OUTER ITERATIONS 
       AND A TOTAL OF         29 INNER ITERATIONS.
    ------------------------------------------------

 NO OUTPUT CONTROL FOR STRESS PERIOD   43   TIME STEP    3
 
 SOLVING FOR HEAD 
                                                   Max.-Head-Change                        Max.-Flux-Residual
  Residual-Control   Outer-Iter.   Inner-Iter.     Column Row Layer    Max.-Head-Change    Column Row Layer    Max.-Flux-Residual            L2-New               L2-Old           Solver-Max-Delh
          0                 1          10            65    6     2      -0.5622094130E+01      70   19    1      -0.7609914617E+05      0.5225358789E+06      0.2018870261E+03     -0.5622094130E+01
          0                 2           9            65    3     2      -0.3172032207E+02      65    3    2      -0.1275067628E+05      0.5385610497E+05      0.5225358789E+06     -0.3172032207E+02
          0                 3           5            65    3     2       0.2427786003E+01      65    3    2       0.1203871729E+04      0.1466995481E+04      0.5385610497E+05      0.2427786003E+01
          0                 4           3            65    3     2       0.1243938290E+00      65    3    2       0.6170957651E+02      0.8284058046E+02      0.1466995481E+04      0.1243938290E+00
          0                 5           2            65    3     2       0.6339613540E-02      65    4    2      -0.4376158602E+01      0.5531390848E+01      0.8284058046E+02      0.6339613540E-02

    ------------------------------------------------
       NWT REQUIRED            5 OUTER ITERATIONS 
       AND A TOTAL OF         29 INNER ITERATIONS.
    ------------------------------------------------

 NO OUTPUT CONTROL FOR STRESS PERIOD   43   TIME STEP    4
 
 SOLVING FOR HEAD 
                                                   Max.-Head-Change                        Max.-Flux-Residual
  Residual-Control   Outer-Iter.   Inner-Iter.     Column Row Layer    Max.-Head-Change    Column Row Layer    Max.-Flux-Residual            L2-New               L2-Old           Solver-Max-Delh
          0                 1          10            56   99     3      -0.2837959355E+01      70   19    1      -0.6822127876E+05      0.4898426060E+06      0.5531390848E+01     -0.2837959355E+01
          0                 2           9            65    5     2      -0.1823306791E+02      73   14    2       0.2636062736E+05      0.5653187391E+05      0.4898426060E+06     -0.1823306791E+02
          0                 3           5            65    5     2       0.8822197632E+00      65    5    2       0.5106603129E+03      0.7717874480E+03      0.5653187391E+05      0.8822197632E+00
          0                 4           3            65    5     2       0.3872474576E-01      65    5    2       0.2240724474E+02      0.2315216197E+02      0.7717874480E+03      0.3872474576E-01
          0                 5           2            65    5     2       0.1696008928E-02      65    5    2       0.9813779867E+00      0.1112052219E+01      0.2315216197E+02      0.1696008928E-02

    ------------------------------------------------
       NWT REQUIRED            5 OUTER ITERATIONS 
       AND A TOTAL OF         29 INNER ITERATIONS.
    ------------------------------------------------

 NO OUTPUT CONTROL FOR STRESS PERIOD   43   TIME STEP    5
 
 SOLVING FOR HEAD 
                                                   Max.-Head-Change                        Max.-Flux-Residual
  Residual-Control   Outer-Iter.   Inner-Iter.     Column Row Layer    Max.-Head-Change    Column Row Layer    Max.-Flux-Residual            L2-New               L2-Old           Solver-Max-Delh
          0                 1          10            65    5     2      -0.1649071962E+02      70   19    1      -0.6138900247E+05      0.4673280918E+06      0.1112052219E+01     -0.1649071962E+02
          0                 2           9            62   95     1      -0.1155422617E+01      62   95    1      -0.3036490553E+05      0.5580290600E+05      0.4673280918E+06     -0.1155422617E+01
          0                 3           5            62   95     1       0.1030754764E+00      62   95    1       0.2988403201E+04      0.3076988782E+04      0.5580290600E+05      0.1030754764E+00
          0                 4           2            65    5     2       0.1375358560E-02      62   95    1       0.4216689959E+01      0.4323130446E+01      0.3076988782E+04      0.1375358560E-02

    ------------------------------------------------
       NWT REQUIRED            4 OUTER ITERATIONS 
       AND A TOTAL OF         26 INNER ITERATIONS.
    ------------------------------------------------

 NO OUTPUT CONTROL FOR STRESS PERIOD   43   TIME STEP    6
 
 SOLVING FOR HEAD 
                                                   Max.-Head-Change                        Max.-Flux-Residual
  Residual-Control   Outer-Iter.   Inner-Iter.     Column Row Layer    Max.-Head-Change    Column Row Layer    Max.-Flux-Residual            L2-New               L2-Old           Solver-Max-Delh
          0                 1          10            56   99     3      -0.2386758655E+01      62   95    2      -0.6006070398E+05      0.4526662830E+06      0.4323130446E+01     -0.2386758655E+01
          0                 2           9            53  117     1      -0.4791171741E+00      53  117    1      -0.2644914157E+05      0.5331216415E+05      0.4526662830E+06     -0.4791171741E+00
          0                 3           5            66  104     2       0.2931737049E-02      59  110    1       0.2472549331E+02      0.5013161182E+02      0.5331216415E+05      0.2931737049E-02

    ------------------------------------------------
       NWT REQUIRED            3 OUTER ITERATIONS 
       AND A TOTAL OF         24 INNER ITERATIONS.
    ------------------------------------------------

 NO OUTPUT CONTROL FOR STRESS PERIOD   43   TIME STEP    7
 
 SOLVING FOR HEAD 
                                                   Max.-Head-Change                        Max.-Flux-Residual
  Residual-Control   Outer-Iter.   Inner-Iter.     Column Row Layer    Max.-Head-Change    Column Row Layer    Max.-Flux-Residual            L2-New               L2-Old           Solver-Max-Delh
          0                 1          10            56   99     3      -0.2205098507E+01      62   95    2      -0.6470320872E+05      0.4407503399E+06      0.5013161182E+02     -0.2205098507E+01
          0                 2           9            69   21     1      -0.2045071503E+01      62   96    3       0.1140677568E+05      0.4687222979E+05      0.4407503399E+06     -0.2045071503E+01
          0                 3           5            69   21     1       0.1746518239E+00      69   21    1       0.9776406957E+03      0.9904989124E+03      0.4687222979E+05      0.1746518239E+00
          0                 4           2            69   21     1       0.9621238677E-03      69   21    1       0.5261173673E+01      0.5288084897E+01      0.9904989124E+03      0.9621238677E-03

    ------------------------------------------------
       NWT REQUIRED            4 OUTER ITERATIONS 
       AND A TOTAL OF         26 INNER ITERATIONS.
    ------------------------------------------------

 NO OUTPUT CONTROL FOR STRESS PERIOD   43   TIME STEP    8
 
 SOLVING FOR HEAD 
                                                   Max.-Head-Change                        Max.-Flux-Residual
  Residual-Control   Outer-Iter.   Inner-Iter.     Column Row Layer    Max.-Head-Change    Column Row Layer    Max.-Flux-Residual            L2-New               L2-Old           Solver-Max-Delh
          0                 1          10            69   21     1      -0.3422318016E+01      62   95    2      -0.6064504093E+05      0.4305665821E+06      0.5288084897E+01     -0.3422318016E+01
          0                 2           9            69   21     1       0.2909678569E+00      62   90    2       0.1519963952E+05      0.4698301975E+05      0.4305665821E+06      0.2909678569E+00
          0                 3           5            63   91     1       0.2295287046E-01      63   91    1       0.6185588731E+03      0.7077281991E+03      0.4698301975E+05      0.2295287046E-01
          0                 4           2            85   85     2      -0.9594805965E-04      63   91    1       0.6891297102E+00      0.9267508381E+00      0.7077281991E+03     -0.9594805965E-04

    ------------------------------------------------
       NWT REQUIRED            4 OUTER ITERATIONS 
       AND A TOTAL OF         26 INNER ITERATIONS.
    ------------------------------------------------

 NO OUTPUT CONTROL FOR STRESS PERIOD   43   TIME STEP    9
 
 SOLVING FOR HEAD 
                                                   Max.-Head-Change                        Max.-Flux-Residual
  Residual-Control   Outer-Iter.   Inner-Iter.     Column Row Layer    Max.-Head-Change    Column Row Layer    Max.-Flux-Residual            L2-New               L2-Old           Solver-Max-Delh
          0                 1          10            56   98     3      -0.2121524897E+01      62   95    2      -0.5757023797E+05      0.4224925522E+06      0.9267508381E+00     -0.2121524897E+01
          0                 2           9            73   14     1      -0.1222092328E+01      73   14    1      -0.8920671065E+04      0.4353425381E+05      0.4224925522E+06     -0.1222092328E+01
          0                 3           5            73   14     1       0.1066256501E+00      73   14    1       0.8582115089E+03      0.1097735254E+04      0.4353425381E+05      0.1066256501E+00
          0                 4           2            73   14     1       0.3885800543E-03      73   14    1       0.2952241194E+01      0.3034532677E+01      0.1097735254E+04      0.3885800543E-03

    ------------------------------------------------
       NWT REQUIRED            4 OUTER ITERATIONS 
       AND A TOTAL OF         26 INNER ITERATIONS.
    ------------------------------------------------

 NO OUTPUT CONTROL FOR STRESS PERIOD   43   TIME STEP   10
 
 SOLVING FOR HEAD 
                                                   Max.-Head-Change                        Max.-Flux-Residual
  Residual-Control   Outer-Iter.   Inner-Iter.     Column Row Layer    Max.-Head-Change    Column Row Layer    Max.-Flux-Residual            L2-New               L2-Old           Solver-Max-Delh
          0                 1          10            73   14     1      -0.2638003126E+01      62   95    2      -0.5524717971E+05      0.4158275251E+06      0.3034532677E+01     -0.2638003126E+01
          0                 2           9            81   58     1      -0.2182484269E+01      62   60    2       0.6285279288E+04      0.4288891179E+05      0.4158275251E+06     -0.2182484269E+01
          0                 3           5            81   58     1       0.1723708561E+00      62   60    1      -0.2130264383E+04      0.2193927323E+04      0.4288891179E+05      0.1723708561E+00
          0                 4           3            62   60     1      -0.4292931724E-02      62   60    1      -0.1918567304E+03      0.1919570022E+03      0.2193927323E+04     -0.4292931724E-02

    ------------------------------------------------
       NWT REQUIRED            4 OUTER ITERATIONS 
       AND A TOTAL OF         27 INNER ITERATIONS.
    ------------------------------------------------

 NO OUTPUT CONTROL FOR STRESS PERIOD   43   TIME STEP   11
 
 SOLVING FOR HEAD 
                                                   Max.-Head-Change                        Max.-Flux-Residual
  Residual-Control   Outer-Iter.   Inner-Iter.     Column Row Layer    Max.-Head-Change    Column Row Layer    Max.-Flux-Residual            L2-New               L2-Old           Solver-Max-Delh
          0                 1          10            56   98     3      -0.2058617220E+01      62   95    2      -0.5351051095E+05      0.4108319738E+06      0.1919570022E+03     -0.2058617220E+01
          0                 2           9            62   60     1      -0.2083951323E+00      44   33    2       0.7097903193E+04      0.4234847876E+05      0.4108319738E+06     -0.2083951323E+00
          0                 3           5            62   60     1       0.1872170670E-01      62   60    1       0.4176438986E+03      0.5111876093E+03      0.4234847876E+05      0.1872170670E-01
          0                 4           2            85   85     2      -0.9736603219E-04      62   60    1       0.3908693343E+00      0.7061071692E+00      0.5111876093E+03     -0.9736603219E-04

    ------------------------------------------------
       NWT REQUIRED            4 OUTER ITERATIONS 
       AND A TOTAL OF         26 INNER ITERATIONS.
    ------------------------------------------------

 OUTPUT CONTROL FOR STRESS PERIOD   43   TIME STEP   12
    SAVE BUDGET
    SAVE HEAD FOR LAYERS:   1  2  3
 UBDSV1 SAVING "         STORAGE" ON UNIT  39 AT TIME STEP 12, STRESS PERIOD  43
 UBDSV2 SAVING "   CONSTANT HEAD" ON UNIT  39 AT TIME STEP 12, STRESS PERIOD  43
 UBDSV1 SAVING "FLOW RIGHT FACE " ON UNIT  39 AT TIME STEP 12, STRESS PERIOD  43
 UBDSV1 SAVING "FLOW FRONT FACE " ON UNIT  39 AT TIME STEP 12, STRESS PERIOD  43
 UBDSV1 SAVING "FLOW LOWER FACE " ON UNIT  39 AT TIME STEP 12, STRESS PERIOD  43
 UBDSV4 SAVING "           WELLS" ON UNIT  39 AT TIME STEP 12, STRESS PERIOD  43
 UBDSV3 SAVING "              ET" ON UNIT  39 AT TIME STEP 12, STRESS PERIOD  43
 UBDSV3 SAVING "        RECHARGE" ON UNIT  39 AT TIME STEP 12, STRESS PERIOD  43

 HEAD WILL BE SAVED ON UNIT   31 AT END OF TIME STEP   12, STRESS PERIOD   43
1
  VOLUMETRIC BUDGET FOR ENTIRE MODEL AT END OF TIME STEP   12, STRESS PERIOD  43
  ------------------------------------------------------------------------------

     CUMULATIVE VOLUMES      L**3       RATES FOR THIS TIME STEP      L**3/T
     ------------------                 ------------------------

           IN:                                      IN:
           ---                                      ---
             STORAGE     =283206254592.0000               STORAGE     =    16133459.0000
       CONSTANT HEAD     = 25046472704.0000         CONSTANT HEAD     =     2352475.5000
               WELLS     = 19249457152.0000                 WELLS     =     1225642.0000
                  ET     =           0.0000                    ET     =           0.0000
            RECHARGE     =291134210048.0000              RECHARGE     =    21511000.0000

                TOTAL IN =618636378112.0000                  TOTAL IN =    41222576.0000

          OUT:                                     OUT:
          ----                                     ----
             STORAGE     = 37100969984.0000               STORAGE     =     3231267.7500
       CONSTANT HEAD     = 53846872064.0000         CONSTANT HEAD     =     2407955.5000
               WELLS     =514381021184.0000                 WELLS     =    35055292.0000
                  ET     = 13307063296.0000                    ET     =      528062.5625
            RECHARGE     =           0.0000              RECHARGE     =           0.0000

               TOTAL OUT =618635984896.0000                 TOTAL OUT =    41222580.0000

                IN - OUT =      393216.0000                  IN - OUT =          -4.0000

     PERCENT DISCREPANCY =           0.00         PERCENT DISCREPANCY =          -0.00






         TIME SUMMARY AT END OF TIME STEP   12 IN STRESS PERIOD   43
                    SECONDS     MINUTES      HOURS       DAYS        YEARS
                    -----------------------------------------------------------
   TIME STEP LENGTH 2.62800E+06  43800.      730.00      30.417     8.32763E-02
 STRESS PERIOD TIME 3.15360E+07 5.25600E+05  8760.0      365.00     0.99932    
         TOTAL TIME 1.35700E+09 2.26167E+07 3.76945E+05  15706.      43.001    
1
1
                            STRESS PERIOD NO.   44, LENGTH =   365.0000    
                            -----------------------------------------------

                              NUMBER OF TIME STEPS =    12

                               MULTIPLIER FOR DELT =     1.000

                            INITIAL TIME STEP SIZE =   30.41667    

   1522 WELLS

 REUSING SURF FROM LAST STRESS PERIOD

 REUSING EVTR FROM LAST STRESS PERIOD

 REUSING EXDP FROM LAST STRESS PERIOD



                           RECHARGE
 READING ON UNIT   16 WITH FORMAT: (15F5.0)            


     63 TIME-VARIANT SPECIFIED-HEAD CELLS
 
 SOLVING FOR HEAD 
                                                   Max.-Head-Change                        Max.-Flux-Residual
  Residual-Control   Outer-Iter.   Inner-Iter.     Column Row Layer    Max.-Head-Change    Column Row Layer    Max.-Flux-Residual            L2-New               L2-Old           Solver-Max-Delh
          0                 1          11            65    2     2       0.1539003807E+03      87   51    1       0.5305367782E+06      0.3146266341E+07      0.7061071692E+00      0.1539003807E+03
          0                 2          10            65    5     2      -0.5111078546E+02      65    5    2      -0.1393915505E+07      0.2795093332E+07      0.3146266341E+07     -0.5111078546E+02
          0                 3           7            66    2     2       0.1398840763E+02      65    5    2      -0.2842645155E+05      0.4777596096E+05      0.2795093332E+07      0.1398840763E+02
          0                 4           5            66    2     2       0.2150731258E+01      65    4    2       0.1698992746E+04      0.2835860506E+04      0.4777596096E+05      0.2150731258E+01
          0                 5           4            66    2     2       0.3162431769E+00      65    4    2       0.1526739700E+03      0.3307347891E+03      0.2835860506E+04      0.3162431769E+00
          0                 6           3            66    2     2       0.4646330358E-01      66    2    2       0.2047570625E+02      0.4219021059E+02      0.3307347891E+03      0.4646330358E-01
          0                 7           2            66    2     2       0.6822089430E-02      66    2    2       0.3006066121E+01      0.5713708140E+01      0.4219021059E+02      0.6822089430E-02

    ------------------------------------------------
       NWT REQUIRED            7 OUTER ITERATIONS 
       AND A TOTAL OF         42 INNER ITERATIONS.
    ------------------------------------------------

 NO OUTPUT CONTROL FOR STRESS PERIOD   44   TIME STEP    1
 
 SOLVING FOR HEAD 
                                                   Max.-Head-Change                        Max.-Flux-Residual
  Residual-Control   Outer-Iter.   Inner-Iter.     Column Row Layer    Max.-Head-Change    Column Row Layer    Max.-Flux-Residual            L2-New               L2-Old           Solver-Max-Delh
          0                 1          11            92   52     1       0.1131440467E+02      84   52    1       0.4463499409E+06      0.2505794420E+07      0.5713708140E+01      0.1131440467E+02
          0                 2           9            83   51     1      -0.2276798458E+01      83   51    1      -0.1351608192E+06      0.3049197086E+06      0.2505794420E+07     -0.2276798458E+01
          0                 3           6            70   46     1      -0.6915348702E-01      59   54    2      -0.7950507102E+03      0.1871915073E+04      0.3049197086E+06     -0.6915348702E-01
          0                 4           4            85   51     2       0.2301045599E-02      79   48    1       0.3896892710E+02      0.6006833526E+02      0.1871915073E+04      0.2301045599E-02

    ------------------------------------------------
       NWT REQUIRED            4 OUTER ITERATIONS 
       AND A TOTAL OF         30 INNER ITERATIONS.
    ------------------------------------------------

 NO OUTPUT CONTROL FOR STRESS PERIOD   44   TIME STEP    2
 
 SOLVING FOR HEAD 
                                                   Max.-Head-Change                        Max.-Flux-Residual
  Residual-Control   Outer-Iter.   Inner-Iter.     Column Row Layer    Max.-Head-Change    Column Row Layer    Max.-Flux-Residual            L2-New               L2-Old           Solver-Max-Delh
          0                 1          11            92   52     1       0.1105338196E+02      84   52    1       0.4085891951E+06      0.2156553823E+07      0.6006833526E+02      0.1105338196E+02
          0                 2           9            84   52     1      -0.1536428742E+01      84   52    1      -0.8570881651E+05      0.2641525182E+06      0.2156553823E+07     -0.1536428742E+01
          0                 3           6            62   43     1      -0.2363003630E-01      59   53    2       0.1282734028E+04      0.1755424069E+04      0.2641525182E+06     -0.2363003630E-01
          0                 4           3            59   53     2       0.1119053065E-02      59   53    2       0.1154329537E+03      0.1176943438E+03      0.1755424069E+04      0.1119053065E-02

    ------------------------------------------------
       NWT REQUIRED            4 OUTER ITERATIONS 
       AND A TOTAL OF         29 INNER ITERATIONS.
    ------------------------------------------------

 NO OUTPUT CONTROL FOR STRESS PERIOD   44   TIME STEP    3
 
 SOLVING FOR HEAD 
                                                   Max.-Head-Change                        Max.-Flux-Residual
  Residual-Control   Outer-Iter.   Inner-Iter.     Column Row Layer    Max.-Head-Change    Column Row Layer    Max.-Flux-Residual            L2-New               L2-Old           Solver-Max-Delh
          0                 1          11            92   52     1       0.1023981998E+02      92   52    1       0.3671672576E+06      0.1908949816E+07      0.1176943438E+03      0.1023981998E+02
          0                 2           9            73   14     2       0.5067242540E+01      73   14    2       0.5196911440E+05      0.2105712666E+06      0.1908949816E+07      0.5067242540E+01
          0                 3           6            73   14     2      -0.4307075978E+00      73   14    2      -0.4796276676E+04      0.5050498330E+04      0.2105712666E+06     -0.4307075978E+00
          0                 4           3            71   46     1      -0.5811204271E-03      61  108    1       0.6228002876E+01      0.9018964401E+01      0.5050498330E+04     -0.5811204271E-03

    ------------------------------------------------
       NWT REQUIRED            4 OUTER ITERATIONS 
       AND A TOTAL OF         29 INNER ITERATIONS.
    ------------------------------------------------

 NO OUTPUT CONTROL FOR STRESS PERIOD   44   TIME STEP    4
 
 SOLVING FOR HEAD 
                                                   Max.-Head-Change                        Max.-Flux-Residual
  Residual-Control   Outer-Iter.   Inner-Iter.     Column Row Layer    Max.-Head-Change    Column Row Layer    Max.-Flux-Residual            L2-New               L2-Old           Solver-Max-Delh
          0                 1          11            92   52     1       0.9482962709E+01      92   52    1       0.3403860086E+06      0.1726771121E+07      0.9018964401E+01      0.9482962709E+01
          0                 2           9            71   19     3       0.1383357427E+01      62   93    1      -0.7490691499E+05      0.2005024706E+06      0.1726771121E+07      0.1383357427E+01
          0                 3           6            71   19     3      -0.1257648987E+00      65   45    1      -0.2637914690E+04      0.4059091055E+04      0.2005024706E+06     -0.1257648987E+00
          0                 4           5            34   30     2       0.2285770251E-02      34   30    2       0.1383121955E+03      0.1434917919E+03      0.4059091055E+04      0.2285770251E-02

    ------------------------------------------------
       NWT REQUIRED            4 OUTER ITERATIONS 
       AND A TOTAL OF         31 INNER ITERATIONS.
    ------------------------------------------------

 NO OUTPUT CONTROL FOR STRESS PERIOD   44   TIME STEP    5
 
 SOLVING FOR HEAD 
                                                   Max.-Head-Change                        Max.-Flux-Residual
  Residual-Control   Outer-Iter.   Inner-Iter.     Column Row Layer    Max.-Head-Change    Column Row Layer    Max.-Flux-Residual            L2-New               L2-Old           Solver-Max-Delh
          0                 1          11            92   52     1       0.8792592161E+01      92   52    1       0.3154128427E+06      0.1591816892E+07      0.1434917919E+03      0.8792592161E+01
          0                 2           9            65   45     1      -0.1743810771E+01      65   45    1      -0.9990926411E+05      0.2085285998E+06      0.1591816892E+07     -0.1743810771E+01
          0                 3           6            69   21     2       0.1857904828E+00      69   21    2       0.8209287367E+04      0.1042424857E+05      0.2085285998E+06      0.1857904828E+00
          0                 4           4            69   21     2       0.1671437866E-01      69   21    2       0.7384880982E+03      0.9316644069E+03      0.1042424857E+05      0.1671437866E-01
          0                 5           3            69   21     2       0.1502761148E-02      69   21    2       0.6638729353E+02      0.8375274263E+02      0.9316644069E+03      0.1502761148E-02

    ------------------------------------------------
       NWT REQUIRED            5 OUTER ITERATIONS 
       AND A TOTAL OF         33 INNER ITERATIONS.
    ------------------------------------------------

 NO OUTPUT CONTROL FOR STRESS PERIOD   44   TIME STEP    6
 
 SOLVING FOR HEAD 
                                                   Max.-Head-Change                        Max.-Flux-Residual
  Residual-Control   Outer-Iter.   Inner-Iter.     Column Row Layer    Max.-Head-Change    Column Row Layer    Max.-Flux-Residual            L2-New               L2-Old           Solver-Max-Delh
          0                 1          10            66  101     1      -0.8679505400E+01      92   52    1       0.2924487339E+06      0.1484537281E+07      0.8375274263E+02     -0.8679505400E+01
          0                 2           9            69   21     2       0.4533703758E+01      69   21    2       0.4333998435E+05      0.1629120012E+06      0.1484537281E+07      0.4533703758E+01
          0                 3           7            69   21     2      -0.4121403617E+00      39   29    2       0.6985861218E+04      0.9664500286E+04      0.1629120012E+06     -0.4121403617E+00
          0                 4           6            39   29     2       0.5400690718E-02      39   29    2       0.6285072283E+03      0.7107873373E+03      0.9664500286E+04      0.5400690718E-02

    ------------------------------------------------
       NWT REQUIRED            4 OUTER ITERATIONS 
       AND A TOTAL OF         32 INNER ITERATIONS.
    ------------------------------------------------

 NO OUTPUT CONTROL FOR STRESS PERIOD   44   TIME STEP    7
 
 SOLVING FOR HEAD 
                                                   Max.-Head-Change                        Max.-Flux-Residual
  Residual-Control   Outer-Iter.   Inner-Iter.     Column Row Layer    Max.-Head-Change    Column Row Layer    Max.-Flux-Residual            L2-New               L2-Old           Solver-Max-Delh
          0                 1          10            92   52     1       0.7572121976E+01      92   52    1       0.2713501903E+06      0.1402384806E+07      0.7107873373E+03      0.7572121976E+01
          0                 2           9            65   45     2       0.1914152522E+01      65   45    2       0.5310700327E+05      0.1676126032E+06      0.1402384806E+07      0.1914152522E+01
          0                 3           6            65   45     2      -0.1739700896E+00      65   45    2      -0.5286092724E+04      0.8879557821E+04      0.1676126032E+06     -0.1739700896E+00
          0                 4           4            66   22     2       0.7384330492E-02      66   22    2       0.4202526193E+03      0.4294616792E+03      0.8879557821E+04      0.7384330492E-02

    ------------------------------------------------
       NWT REQUIRED            4 OUTER ITERATIONS 
       AND A TOTAL OF         29 INNER ITERATIONS.
    ------------------------------------------------

 NO OUTPUT CONTROL FOR STRESS PERIOD   44   TIME STEP    8
 
 SOLVING FOR HEAD 
                                                   Max.-Head-Change                        Max.-Flux-Residual
  Residual-Control   Outer-Iter.   Inner-Iter.     Column Row Layer    Max.-Head-Change    Column Row Layer    Max.-Flux-Residual            L2-New               L2-Old           Solver-Max-Delh
          0                 1          10            92   52     1       0.7052161908E+01      92   52    1       0.2521891774E+06      0.1336281239E+07      0.4294616792E+03      0.7052161908E+01
          0                 2           9            62   91     2       0.1096821095E+01      62   91    2       0.3521536852E+05      0.1562950387E+06      0.1336281239E+07      0.1096821095E+01
          0                 3           6            62   91     2      -0.9999633529E-01      62   91    2      -0.3511312623E+04      0.4481844555E+04      0.1562950387E+06     -0.9999633529E-01
          0                 4           3            62  105     1       0.2301969371E-03      62  105    1       0.1018164149E+02      0.1491957628E+02      0.4481844555E+04      0.2301969371E-03

    ------------------------------------------------
       NWT REQUIRED            4 OUTER ITERATIONS 
       AND A TOTAL OF         28 INNER ITERATIONS.
    ------------------------------------------------

 NO OUTPUT CONTROL FOR STRESS PERIOD   44   TIME STEP    9
 
 SOLVING FOR HEAD 
                                                   Max.-Head-Change                        Max.-Flux-Residual
  Residual-Control   Outer-Iter.   Inner-Iter.     Column Row Layer    Max.-Head-Change    Column Row Layer    Max.-Flux-Residual            L2-New               L2-Old           Solver-Max-Delh
          0                 1          10            92   52     1       0.6590851355E+01      92   52    1       0.2349566519E+06      0.1280900840E+07      0.1491957628E+02      0.6590851355E+01
          0                 2           9            92   52     1      -0.6045933196E+00      92   52    1      -0.2379811202E+05      0.1336839543E+06      0.1280900840E+07     -0.6045933196E+00
          0                 3           7            52  117     1      -0.3338453851E-01      36   29    2      -0.1406537565E+04      0.2399876526E+04      0.1336839543E+06     -0.3338453851E-01
          0                 4           3            66    2     2      -0.1163263118E-03      52  117    1      -0.9535479695E+00      0.1641726257E+01      0.2399876526E+04     -0.1163263118E-03

    ------------------------------------------------
       NWT REQUIRED            4 OUTER ITERATIONS 
       AND A TOTAL OF         29 INNER ITERATIONS.
    ------------------------------------------------

 NO OUTPUT CONTROL FOR STRESS PERIOD   44   TIME STEP   10
 
 SOLVING FOR HEAD 
                                                   Max.-Head-Change                        Max.-Flux-Residual
  Residual-Control   Outer-Iter.   Inner-Iter.     Column Row Layer    Max.-Head-Change    Column Row Layer    Max.-Flux-Residual            L2-New               L2-Old           Solver-Max-Delh
          0                 1          10            92   52     1       0.6184223139E+01      92   52    1       0.2196429942E+06      0.1234673066E+07      0.1641726257E+01      0.6184223139E+01
          0                 2           9            92   52     1      -0.5660133201E+00      44   34    1      -0.2251709728E+05      0.1314651965E+06      0.1234673066E+07     -0.5660133201E+00
          0                 3           7            63   92     2       0.1176905725E+00      63   92    2       0.7662092042E+04      0.9562258675E+04      0.1314651965E+06      0.1176905725E+00
          0                 4           6            63   92     2       0.1057468532E-01      63   92    2       0.6891814982E+03      0.8536037566E+03      0.9562258675E+04      0.1057468532E-01
          0                 5           4            63   92     2       0.9506211141E-03      63   92    2       0.6195418943E+02      0.7673208362E+02      0.8536037566E+03      0.9506211141E-03

    ------------------------------------------------
       NWT REQUIRED            5 OUTER ITERATIONS 
       AND A TOTAL OF         36 INNER ITERATIONS.
    ------------------------------------------------

 NO OUTPUT CONTROL FOR STRESS PERIOD   44   TIME STEP   11
 
 SOLVING FOR HEAD 
                                                   Max.-Head-Change                        Max.-Flux-Residual
  Residual-Control   Outer-Iter.   Inner-Iter.     Column Row Layer    Max.-Head-Change    Column Row Layer    Max.-Flux-Residual            L2-New               L2-Old           Solver-Max-Delh
          0                 1          10            92   52     1       0.5828417513E+01      92   52    1       0.2061465750E+06      0.1195171738E+07      0.7673208362E+02      0.5828417513E+01
          0                 2           9            81   52     2       0.1363870289E+01      60   62    1      -0.3648732319E+05      0.1346214854E+06      0.1195171738E+07      0.1363870289E+01
          0                 3           6            81   52     2      -0.1239795009E+00      45   37    2       0.2298769455E+04      0.3777965235E+04      0.1346214854E+06     -0.1239795009E+00
          0                 4           4            45   37     2       0.2446844105E-02      45   37    2       0.2068522319E+03      0.2068764776E+03      0.3777965235E+04      0.2446844105E-02

    ------------------------------------------------
       NWT REQUIRED            4 OUTER ITERATIONS 
       AND A TOTAL OF         29 INNER ITERATIONS.
    ------------------------------------------------

 OUTPUT CONTROL FOR STRESS PERIOD   44   TIME STEP   12
    SAVE BUDGET
 UBDSV1 SAVING "         STORAGE" ON UNIT  39 AT TIME STEP 12, STRESS PERIOD  44
 UBDSV2 SAVING "   CONSTANT HEAD" ON UNIT  39 AT TIME STEP 12, STRESS PERIOD  44
 UBDSV1 SAVING "FLOW RIGHT FACE " ON UNIT  39 AT TIME STEP 12, STRESS PERIOD  44
 UBDSV1 SAVING "FLOW FRONT FACE " ON UNIT  39 AT TIME STEP 12, STRESS PERIOD  44
 UBDSV1 SAVING "FLOW LOWER FACE " ON UNIT  39 AT TIME STEP 12, STRESS PERIOD  44
 UBDSV4 SAVING "           WELLS" ON UNIT  39 AT TIME STEP 12, STRESS PERIOD  44
 UBDSV3 SAVING "              ET" ON UNIT  39 AT TIME STEP 12, STRESS PERIOD  44
 UBDSV3 SAVING "        RECHARGE" ON UNIT  39 AT TIME STEP 12, STRESS PERIOD  44
1
  VOLUMETRIC BUDGET FOR ENTIRE MODEL AT END OF TIME STEP   12, STRESS PERIOD  44
  ------------------------------------------------------------------------------

     CUMULATIVE VOLUMES      L**3       RATES FOR THIS TIME STEP      L**3/T
     ------------------                 ------------------------

           IN:                                      IN:
           ---                                      ---
             STORAGE     =286116970496.0000               STORAGE     =     6181871.0000
       CONSTANT HEAD     = 25815793664.0000         CONSTANT HEAD     =     2000203.5000
               WELLS     = 19696814080.0000                 WELLS     =     1225642.0000
                  ET     =           0.0000                    ET     =           0.0000
            RECHARGE     =314783006720.0000              RECHARGE     =    64791012.0000

                TOTAL IN =646412566528.0000                  TOTAL IN =    74198728.0000

          OUT:                                     OUT:
          ----                                     ----
             STORAGE     = 51152891904.0000               STORAGE     =    35291676.0000
       CONSTANT HEAD     = 54806990848.0000         CONSTANT HEAD     =     2734950.2500
               WELLS     =526078017536.0000                 WELLS     =    32046392.0000
                  ET     = 14374233088.0000                    ET     =     4125697.7500
            RECHARGE     =           0.0000              RECHARGE     =           0.0000

               TOTAL OUT =646412107776.0000                 TOTAL OUT =    74198720.0000

                IN - OUT =      458752.0000                  IN - OUT =           8.0000

     PERCENT DISCREPANCY =           0.00         PERCENT DISCREPANCY =           0.00






         TIME SUMMARY AT END OF TIME STEP   12 IN STRESS PERIOD   44
                    SECONDS     MINUTES      HOURS       DAYS        YEARS
                    -----------------------------------------------------------
   TIME STEP LENGTH 2.62800E+06  43800.      730.00      30.417     8.32763E-02
 STRESS PERIOD TIME 3.15360E+07 5.25600E+05  8760.0      365.00     0.99932    
         TOTAL TIME 1.38854E+09 2.31423E+07 3.85705E+05  16071.      44.000    
1
1
                            STRESS PERIOD NO.   45, LENGTH =   366.0000    
                            -----------------------------------------------

                              NUMBER OF TIME STEPS =    12

                               MULTIPLIER FOR DELT =     1.000

                            INITIAL TIME STEP SIZE =   30.50000    

   1713 WELLS

 REUSING SURF FROM LAST STRESS PERIOD

 REUSING EVTR FROM LAST STRESS PERIOD

 REUSING EXDP FROM LAST STRESS PERIOD



                           RECHARGE
 READING ON UNIT   16 WITH FORMAT: (15F5.0)            


     63 TIME-VARIANT SPECIFIED-HEAD CELLS
 
 SOLVING FOR HEAD 
                                                   Max.-Head-Change                        Max.-Flux-Residual
  Residual-Control   Outer-Iter.   Inner-Iter.     Column Row Layer    Max.-Head-Change    Column Row Layer    Max.-Flux-Residual            L2-New               L2-Old           Solver-Max-Delh
          0                 1          11            62   96     3       0.6828242955E+02      43   33    2      -0.3720084281E+06      0.2397020445E+07      0.2068764776E+03      0.6828242955E+02
          0                 2          10            61   96     3      -0.6103070175E+01      19   38    2      -0.9917091821E+05      0.2619769647E+06      0.2397020445E+07     -0.6103070175E+01
          0                 3           7            19   37     2       0.2050218109E+00      17   15    1       0.3087802493E+04      0.6171190444E+04      0.2619769647E+06      0.2050218109E+00
          0                 4           6            19   37     2      -0.1637704704E-01      32   29    2       0.2357582944E+03      0.2784990280E+03      0.6171190444E+04     -0.1637704704E-01
          0                 5           4            19   39     2       0.1527063164E-02      32   29    2       0.2119439461E+02      0.2426160533E+02      0.2784990280E+03      0.1527063164E-02

    ------------------------------------------------
       NWT REQUIRED            5 OUTER ITERATIONS 
       AND A TOTAL OF         38 INNER ITERATIONS.
    ------------------------------------------------

 NO OUTPUT CONTROL FOR STRESS PERIOD   45   TIME STEP    1
 
 SOLVING FOR HEAD 
                                                   Max.-Head-Change                        Max.-Flux-Residual
  Residual-Control   Outer-Iter.   Inner-Iter.     Column Row Layer    Max.-Head-Change    Column Row Layer    Max.-Flux-Residual            L2-New               L2-Old           Solver-Max-Delh
          0                 1          11            23   43     2      -0.1689381403E+02      67   47    1      -0.2598951227E+06      0.1441635453E+07      0.2426160533E+02     -0.1689381403E+02
          0                 2           9            55   37     1      -0.2752978249E+01      75   48    1       0.4251581445E+05      0.1498533692E+06      0.1441635453E+07     -0.2752978249E+01
          0                 3           6            55   37     1       0.2339701931E+00      32   29    2      -0.1595289223E+04      0.2230819403E+04      0.1498533692E+06      0.2339701931E+00
          0                 4           4            55   37     1       0.1508839855E-02      60  106    1      -0.8904699504E+01      0.1574969861E+02      0.2230819403E+04      0.1508839855E-02

    ------------------------------------------------
       NWT REQUIRED            4 OUTER ITERATIONS 
       AND A TOTAL OF         30 INNER ITERATIONS.
    ------------------------------------------------

 NO OUTPUT CONTROL FOR STRESS PERIOD   45   TIME STEP    2
 
 SOLVING FOR HEAD 
                                                   Max.-Head-Change                        Max.-Flux-Residual
  Residual-Control   Outer-Iter.   Inner-Iter.     Column Row Layer    Max.-Head-Change    Column Row Layer    Max.-Flux-Residual            L2-New               L2-Old           Solver-Max-Delh
          0                 1          10            56   99     3      -0.7674828375E+01      75   48    1      -0.2196433963E+06      0.1125116045E+07      0.1574969861E+02     -0.7674828375E+01
          0                 2           9            62   43     2       0.7505557752E+00      75   48    1       0.2177918648E+05      0.1143191145E+06      0.1125116045E+07      0.7505557752E+00
          0                 3           6            62   43     2      -0.6822257825E-01      32   26    1       0.1411147052E+04      0.1632938360E+04      0.1143191145E+06     -0.6822257825E-01
          0                 4           3            80   84     1       0.2064918773E-03      59  105    1       0.1623907447E+02      0.1812993350E+02      0.1632938360E+04      0.2064918773E-03

    ------------------------------------------------
       NWT REQUIRED            4 OUTER ITERATIONS 
       AND A TOTAL OF         28 INNER ITERATIONS.
    ------------------------------------------------

 NO OUTPUT CONTROL FOR STRESS PERIOD   45   TIME STEP    3
 
 SOLVING FOR HEAD 
                                                   Max.-Head-Change                        Max.-Flux-Residual
  Residual-Control   Outer-Iter.   Inner-Iter.     Column Row Layer    Max.-Head-Change    Column Row Layer    Max.-Flux-Residual            L2-New               L2-Old           Solver-Max-Delh
          0                 1          10            56   99     3      -0.6324804671E+01      76   48    1      -0.1899765886E+06      0.9369261767E+06      0.1812993350E+02     -0.6324804671E+01
          0                 2           9            65    2     2      -0.3942423134E+02      76   48    1       0.1881452737E+05      0.9729317152E+05      0.9369261767E+06     -0.3942423134E+02
          0                 3           7            65    2     2       0.1254115847E+01      33   26    1      -0.3180744235E+04      0.4777212760E+04      0.9729317152E+05      0.1254115847E+01
          0                 4           5            65    2     2       0.7276524718E-01      33   26    1      -0.2868458745E+03      0.4037563317E+03      0.4777212760E+04      0.7276524718E-01
          0                 5           4            65    2     2       0.4217646211E-02      33   26    1      -0.2579201078E+02      0.3634619444E+02      0.4037563317E+03      0.4217646211E-02

    ------------------------------------------------
       NWT REQUIRED            5 OUTER ITERATIONS 
       AND A TOTAL OF         35 INNER ITERATIONS.
    ------------------------------------------------

 NO OUTPUT CONTROL FOR STRESS PERIOD   45   TIME STEP    4
 
 SOLVING FOR HEAD 
                                                   Max.-Head-Change                        Max.-Flux-Residual
  Residual-Control   Outer-Iter.   Inner-Iter.     Column Row Layer    Max.-Head-Change    Column Row Layer    Max.-Flux-Residual            L2-New               L2-Old           Solver-Max-Delh
          0                 1          10            65    2     2      -0.6230793816E+02      76   48    1      -0.1727260607E+06      0.8113407332E+06      0.3634619444E+02     -0.6230793816E+02
          0                 2           9            65    2     2       0.2994803475E+01      62   94    1      -0.4473043697E+05      0.9705560210E+05      0.8113407332E+06      0.2994803475E+01
          0                 3           6            65    2     2       0.1630488791E+00      43   33    1       0.2159454106E+04      0.2535097483E+04      0.9705560210E+05      0.1630488791E+00
          0                 4           3            65    2     2       0.8918922511E-02      58   99    3      -0.8382604729E+01      0.1302641145E+02      0.2535097483E+04      0.8918922511E-02

    ------------------------------------------------
       NWT REQUIRED            4 OUTER ITERATIONS 
       AND A TOTAL OF         28 INNER ITERATIONS.
    ------------------------------------------------

 NO OUTPUT CONTROL FOR STRESS PERIOD   45   TIME STEP    5
 
 SOLVING FOR HEAD 
                                                   Max.-Head-Change                        Max.-Flux-Residual
  Residual-Control   Outer-Iter.   Inner-Iter.     Column Row Layer    Max.-Head-Change    Column Row Layer    Max.-Flux-Residual            L2-New               L2-Old           Solver-Max-Delh
          0                 1          10            56   99     3      -0.4337589723E+01      76   48    1      -0.1571113633E+06      0.7216106189E+06      0.1302641145E+02     -0.4337589723E+01
          0                 2           9            66    1     2      -0.3151015872E+02      76   48    1       0.3934068345E+05      0.8947040238E+05      0.7216106189E+06     -0.3151015872E+02
          0                 3           5            66    1     2       0.8600141649E+00      61   96    2       0.2365047997E+04      0.2403547409E+04      0.8947040238E+05      0.8600141649E+00
          0                 4           3            66    1     2       0.5434007151E-01      61   96    2       0.2131816760E+03      0.2144647902E+03      0.2403547409E+04      0.5434007151E-01
          0                 5           2            66    1     2       0.3429086921E-02      61   96    2       0.1916493273E+02      0.1923040903E+02      0.2144647902E+03      0.3429086921E-02

    ------------------------------------------------
       NWT REQUIRED            5 OUTER ITERATIONS 
       AND A TOTAL OF         29 INNER ITERATIONS.
    ------------------------------------------------

 NO OUTPUT CONTROL FOR STRESS PERIOD   45   TIME STEP    6
 
 SOLVING FOR HEAD 
                                                   Max.-Head-Change                        Max.-Flux-Residual
  Residual-Control   Outer-Iter.   Inner-Iter.     Column Row Layer    Max.-Head-Change    Column Row Layer    Max.-Flux-Residual            L2-New               L2-Old           Solver-Max-Delh
          0                 1          10            66    1     2      -0.3559215685E+02      76   48    1      -0.1271780937E+06      0.6515373882E+06      0.1923040903E+02     -0.3559215685E+02
          0                 2           9            66    1     2       0.9853209467E+00      62   94    2       0.1681048314E+05      0.6884020026E+05      0.6515373882E+06      0.9853209467E+00
          0                 3           5            66    1     2       0.6179408567E-01      62   94    2      -0.1653638503E+04      0.2283721097E+04      0.6884020026E+05      0.6179408567E-01
          0                 4           3            66    1     2       0.3870127243E-02      60   96    1       0.2953677893E+01      0.3563237037E+01      0.2283721097E+04      0.3870127243E-02

    ------------------------------------------------
       NWT REQUIRED            4 OUTER ITERATIONS 
       AND A TOTAL OF         27 INNER ITERATIONS.
    ------------------------------------------------

 NO OUTPUT CONTROL FOR STRESS PERIOD   45   TIME STEP    7
 
 SOLVING FOR HEAD 
                                                   Max.-Head-Change                        Max.-Flux-Residual
  Residual-Control   Outer-Iter.   Inner-Iter.     Column Row Layer    Max.-Head-Change    Column Row Layer    Max.-Flux-Residual            L2-New               L2-Old           Solver-Max-Delh
          0                 1          10            56   99     3      -0.3007943186E+01      76   48    1      -0.1002304069E+06      0.5997686639E+06      0.3563237037E+01     -0.3007943186E+01
          0                 2           9            78   54     1      -0.2852148089E+00      61   60    1      -0.1255181380E+05      0.6195674022E+05      0.5997686639E+06     -0.2852148089E+00
          0                 3           5            78   54     1       0.2175386067E-01      78   54    2      -0.5582529269E+02      0.8870924407E+02      0.6195674022E+05      0.2175386067E-01
          0                 4           3            78   54     1       0.3188378298E-03      65    2    3      -0.1284826644E+01      0.1890588279E+01      0.8870924407E+02      0.3188378298E-03

    ------------------------------------------------
       NWT REQUIRED            4 OUTER ITERATIONS 
       AND A TOTAL OF         27 INNER ITERATIONS.
    ------------------------------------------------

 NO OUTPUT CONTROL FOR STRESS PERIOD   45   TIME STEP    8
 
 SOLVING FOR HEAD 
                                                   Max.-Head-Change                        Max.-Flux-Residual
  Residual-Control   Outer-Iter.   Inner-Iter.     Column Row Layer    Max.-Head-Change    Column Row Layer    Max.-Flux-Residual            L2-New               L2-Old           Solver-Max-Delh
          0                 1          10            78   54     1      -0.4123381775E+01      69   47    1      -0.8696619875E+05      0.5598357837E+06      0.1890588279E+01     -0.4123381775E+01
          0                 2           9            57   84     2      -0.1353170370E+01      69   47    1       0.8603753602E+04      0.5659469352E+05      0.5598357837E+06     -0.1353170370E+01
          0                 3           5            57   84     2       0.1156106630E+00      57   84    2       0.5477372242E+03      0.5930729411E+03      0.5659469352E+05      0.1156106630E+00
          0                 4           2            77   57     1       0.6617443192E-03      57   84    2       0.2980994958E+01      0.3568383583E+01      0.5930729411E+03      0.6617443192E-03

    ------------------------------------------------
       NWT REQUIRED            4 OUTER ITERATIONS 
       AND A TOTAL OF         26 INNER ITERATIONS.
    ------------------------------------------------

 NO OUTPUT CONTROL FOR STRESS PERIOD   45   TIME STEP    9
 
 SOLVING FOR HEAD 
                                                   Max.-Head-Change                        Max.-Flux-Residual
  Residual-Control   Outer-Iter.   Inner-Iter.     Column Row Layer    Max.-Head-Change    Column Row Layer    Max.-Flux-Residual            L2-New               L2-Old           Solver-Max-Delh
          0                 1          10            55  100     3      -0.2375811746E+01      69   47    1      -0.7880433436E+05      0.5286194680E+06      0.3568383583E+01     -0.2375811746E+01
          0                 2           9            74   55     1      -0.7525357469E+00      60   63    1      -0.2157816237E+05      0.5817850919E+05      0.5286194680E+06     -0.7525357469E+00
          0                 3           5            74   55     1       0.6584092810E-01      74   55    1       0.3736995369E+03      0.4221074566E+03      0.5817850919E+05      0.6584092810E-01
          0                 4           3            79   56     1       0.8962071398E-03      79   56    2      -0.2119409658E+01      0.3150640066E+01      0.4221074566E+03      0.8962071398E-03

    ------------------------------------------------
       NWT REQUIRED            4 OUTER ITERATIONS 
       AND A TOTAL OF         27 INNER ITERATIONS.
    ------------------------------------------------

 NO OUTPUT CONTROL FOR STRESS PERIOD   45   TIME STEP   10
 
 SOLVING FOR HEAD 
                                                   Max.-Head-Change                        Max.-Flux-Residual
  Residual-Control   Outer-Iter.   Inner-Iter.     Column Row Layer    Max.-Head-Change    Column Row Layer    Max.-Flux-Residual            L2-New               L2-Old           Solver-Max-Delh
          0                 1          10            79   56     1      -0.3549896773E+01      91   51    1       0.7272472737E+05      0.5033718661E+06      0.3150640066E+01     -0.3549896773E+01
          0                 2           9            65    6     2      -0.1196481805E+02      91   51    1      -0.7307366798E+04      0.5074861976E+05      0.5033718661E+06     -0.1196481805E+02
          0                 3           5            65    6     2       0.6042005925E+00      65    6    3      -0.6563559217E+03      0.7785538532E+03      0.5074861976E+05      0.6042005925E+00
          0                 4           3            65    6     2       0.2449538635E-01      65    6    2       0.1526988767E+02      0.1658169954E+02      0.7785538532E+03      0.2449538635E-01
          0                 5           2            65    6     2       0.9909770290E-03      65    6    3       0.1332390077E+01      0.1565643621E+01      0.1658169954E+02      0.9909770290E-03

    ------------------------------------------------
       NWT REQUIRED            5 OUTER ITERATIONS 
       AND A TOTAL OF         29 INNER ITERATIONS.
    ------------------------------------------------

 NO OUTPUT CONTROL FOR STRESS PERIOD   45   TIME STEP   11
 
 SOLVING FOR HEAD 
                                                   Max.-Head-Change                        Max.-Flux-Residual
  Residual-Control   Outer-Iter.   Inner-Iter.     Column Row Layer    Max.-Head-Change    Column Row Layer    Max.-Flux-Residual            L2-New               L2-Old           Solver-Max-Delh
          0                 1          10            65    6     2      -0.1999675429E+02      91   51    1       0.6973007954E+05      0.4834562824E+06      0.1565643621E+01     -0.1999675429E+02
          0                 2           9            65    6     2       0.2407053914E+01      91   51    1      -0.7003465345E+04      0.4862979586E+05      0.4834562824E+06      0.2407053914E+01
          0                 3           5            65    6     2       0.8812207771E-01      64   94    1      -0.3055982210E+03      0.3365710745E+03      0.4862979586E+05      0.8812207771E-01
          0                 4           2            65    6     2       0.3260732804E-02      65    6    2       0.2210658744E+01      0.2676587403E+01      0.3365710745E+03      0.3260732804E-02

    ------------------------------------------------
       NWT REQUIRED            4 OUTER ITERATIONS 
       AND A TOTAL OF         26 INNER ITERATIONS.
    ------------------------------------------------

 OUTPUT CONTROL FOR STRESS PERIOD   45   TIME STEP   12
    SAVE BUDGET
 UBDSV1 SAVING "         STORAGE" ON UNIT  39 AT TIME STEP 12, STRESS PERIOD  45
 UBDSV2 SAVING "   CONSTANT HEAD" ON UNIT  39 AT TIME STEP 12, STRESS PERIOD  45
 UBDSV1 SAVING "FLOW RIGHT FACE " ON UNIT  39 AT TIME STEP 12, STRESS PERIOD  45
 UBDSV1 SAVING "FLOW FRONT FACE " ON UNIT  39 AT TIME STEP 12, STRESS PERIOD  45
 UBDSV1 SAVING "FLOW LOWER FACE " ON UNIT  39 AT TIME STEP 12, STRESS PERIOD  45
 UBDSV4 SAVING "           WELLS" ON UNIT  39 AT TIME STEP 12, STRESS PERIOD  45
 UBDSV3 SAVING "              ET" ON UNIT  39 AT TIME STEP 12, STRESS PERIOD  45
 UBDSV3 SAVING "        RECHARGE" ON UNIT  39 AT TIME STEP 12, STRESS PERIOD  45
1
  VOLUMETRIC BUDGET FOR ENTIRE MODEL AT END OF TIME STEP   12, STRESS PERIOD  45
  ------------------------------------------------------------------------------

     CUMULATIVE VOLUMES      L**3       RATES FOR THIS TIME STEP      L**3/T
     ------------------                 ------------------------

           IN:                                      IN:
           ---                                      ---
             STORAGE     =291634380800.0000               STORAGE     =    11741787.0000
       CONSTANT HEAD     = 26526320640.0000         CONSTANT HEAD     =     1910769.2500
               WELLS     = 20145399808.0000                 WELLS     =     1225642.0000
                  ET     =           0.0000                    ET     =           0.0000
            RECHARGE     =326053363712.0000              RECHARGE     =    30792824.0000

                TOTAL IN =664359469056.0000                  TOTAL IN =    45671024.0000

          OUT:                                     OUT:
          ----                                     ----
             STORAGE     = 55287988224.0000               STORAGE     =     8223444.0000
       CONSTANT HEAD     = 55782092800.0000         CONSTANT HEAD     =     2642523.5000
               WELLS     =537596002304.0000                 WELLS     =    31459896.0000
                  ET     = 15692666880.0000                    ET     =     3345163.7500
            RECHARGE     =           0.0000              RECHARGE     =           0.0000

               TOTAL OUT =664358748160.0000                 TOTAL OUT =    45671028.0000

                IN - OUT =      720896.0000                  IN - OUT =          -4.0000

     PERCENT DISCREPANCY =           0.00         PERCENT DISCREPANCY =          -0.00






         TIME SUMMARY AT END OF TIME STEP   12 IN STRESS PERIOD   45
                    SECONDS     MINUTES      HOURS       DAYS        YEARS
                    -----------------------------------------------------------
   TIME STEP LENGTH 2.63520E+06  43920.      732.00      30.500     8.35044E-02
 STRESS PERIOD TIME 3.16224E+07 5.27040E+05  8784.0      366.00      1.0021    
         TOTAL TIME 1.42016E+09 2.36694E+07 3.94489E+05  16437.      45.002    
1
1
                            STRESS PERIOD NO.   46, LENGTH =   365.0000    
                            -----------------------------------------------

                              NUMBER OF TIME STEPS =    12

                               MULTIPLIER FOR DELT =     1.000

                            INITIAL TIME STEP SIZE =   30.41667    

   1879 WELLS

 REUSING SURF FROM LAST STRESS PERIOD

 REUSING EVTR FROM LAST STRESS PERIOD

 REUSING EXDP FROM LAST STRESS PERIOD



                           RECHARGE
 READING ON UNIT   16 WITH FORMAT: (15F5.0)            


     63 TIME-VARIANT SPECIFIED-HEAD CELLS
 
 SOLVING FOR HEAD 
                                                   Max.-Head-Change                        Max.-Flux-Residual
  Residual-Control   Outer-Iter.   Inner-Iter.     Column Row Layer    Max.-Head-Change    Column Row Layer    Max.-Flux-Residual            L2-New               L2-Old           Solver-Max-Delh
          0                 1          11            84   52     3      -0.7661326010E+02      53  118    2      -0.2597229272E+06      0.1207752315E+07      0.2676587403E+01     -0.7661326010E+02
          0                 2           9            84   52     3       0.6974258660E+01      23   43    2      -0.1338353629E+06      0.1807955453E+06      0.1207752315E+07      0.6974258660E+01
          0                 3           8            22   43     2       0.7072194945E+00      23   43    2      -0.4978142626E+04      0.5730446311E+04      0.1807955453E+06      0.7072194945E+00
          0                 4           6            22   43     2       0.7682958834E-01      23   42    2       0.1149657783E+03      0.2229837780E+03      0.5730446311E+04      0.7682958834E-01
          0                 5           5            22   43     2       0.7758781717E-02      22   43    2       0.1151106418E+02      0.2114974069E+02      0.2229837780E+03      0.7758781717E-02

    ------------------------------------------------
       NWT REQUIRED            5 OUTER ITERATIONS 
       AND A TOTAL OF         39 INNER ITERATIONS.
    ------------------------------------------------

 NO OUTPUT CONTROL FOR STRESS PERIOD   46   TIME STEP    1
 
 SOLVING FOR HEAD 
                                                   Max.-Head-Change                        Max.-Flux-Residual
  Residual-Control   Outer-Iter.   Inner-Iter.     Column Row Layer    Max.-Head-Change    Column Row Layer    Max.-Flux-Residual            L2-New               L2-Old           Solver-Max-Delh
          0                 1          11            84   52     3      -0.1317863807E+02      77   48    1      -0.1889404617E+06      0.8328040379E+06      0.2114974069E+02     -0.1317863807E+02
          0                 2           9            65    3     2      -0.1624768938E+02      53  118    1       0.2083678553E+05      0.8606426728E+05      0.8328040379E+06     -0.1624768938E+02
          0                 3           7            65    3     2       0.8745040085E+00      65    5    2      -0.8927197016E+03      0.1623467297E+04      0.8606426728E+05      0.8745040085E+00
          0                 4           3            65    3     2       0.4289903511E-01      65    5    2      -0.8035841899E+02      0.8468805921E+02      0.1623467297E+04      0.4289903511E-01
          0                 5           2            65    3     2       0.2098808173E-02      65    5    2      -0.7224338278E+01      0.7379210553E+01      0.8468805921E+02      0.2098808173E-02

    ------------------------------------------------
       NWT REQUIRED            5 OUTER ITERATIONS 
       AND A TOTAL OF         32 INNER ITERATIONS.
    ------------------------------------------------

 NO OUTPUT CONTROL FOR STRESS PERIOD   46   TIME STEP    2
 
 SOLVING FOR HEAD 
                                                   Max.-Head-Change                        Max.-Flux-Residual
  Residual-Control   Outer-Iter.   Inner-Iter.     Column Row Layer    Max.-Head-Change    Column Row Layer    Max.-Flux-Residual            L2-New               L2-Old           Solver-Max-Delh
          0                 1          10            65    3     2      -0.1133435004E+02      77   48    1      -0.1676714034E+06      0.7085156882E+06      0.7379210553E+01     -0.1133435004E+02
          0                 2           9            65    5     2      -0.3152377113E+02      77   48    1       0.1652645540E+05      0.7251234990E+05      0.7085156882E+06     -0.3152377113E+02
          0                 3           5            65    5     2       0.3620814479E+01      65    5    2       0.2190328361E+04      0.2778417893E+04      0.7251234990E+05      0.3620814479E+01
          0                 4           3            65    5     2       0.1535316077E+00      65    4    2      -0.1102257521E+03      0.1441236918E+03      0.2778417893E+04      0.1535316077E+00
          0                 5           2            65    5     2       0.6450198816E-02      65    4    2      -0.8874983089E+01      0.9772349208E+01      0.1441236918E+03      0.6450198816E-02

    ------------------------------------------------
       NWT REQUIRED            5 OUTER ITERATIONS 
       AND A TOTAL OF         29 INNER ITERATIONS.
    ------------------------------------------------

 NO OUTPUT CONTROL FOR STRESS PERIOD   46   TIME STEP    3
 
 SOLVING FOR HEAD 
                                                   Max.-Head-Change                        Max.-Flux-Residual
  Residual-Control   Outer-Iter.   Inner-Iter.     Column Row Layer    Max.-Head-Change    Column Row Layer    Max.-Flux-Residual            L2-New               L2-Old           Solver-Max-Delh
          0                 1          10            55   99     3      -0.5468941546E+01      77   48    1      -0.1495021203E+06      0.6337990522E+06      0.9772349208E+01     -0.5468941546E+01
          0                 2           9            77   48     1       0.6554404812E+00      77   48    1       0.3553267862E+05      0.8046716342E+05      0.6337990522E+06      0.6554404812E+00
          0                 3           5            66   18     1      -0.2734962353E-01      66   18    1      -0.1148373131E+04      0.1351491801E+04      0.8046716342E+05     -0.2734962353E-01
          0                 4           3            66   18     1      -0.2462212578E-02      66   18    1      -0.1033701018E+03      0.1213438464E+03      0.1351491801E+04     -0.2462212578E-02

    ------------------------------------------------
       NWT REQUIRED            4 OUTER ITERATIONS 
       AND A TOTAL OF         27 INNER ITERATIONS.
    ------------------------------------------------

 NO OUTPUT CONTROL FOR STRESS PERIOD   46   TIME STEP    4
 
 SOLVING FOR HEAD 
                                                   Max.-Head-Change                        Max.-Flux-Residual
  Residual-Control   Outer-Iter.   Inner-Iter.     Column Row Layer    Max.-Head-Change    Column Row Layer    Max.-Flux-Residual            L2-New               L2-Old           Solver-Max-Delh
          0                 1          10            55   99     3      -0.5210531061E+01      85   52    1      -0.1207040269E+06      0.5771255393E+06      0.1213438464E+03     -0.5210531061E+01
          0                 2           9            66   18     1      -0.4628549560E+00      77   48    1       0.1191805982E+05      0.5804586727E+05      0.5771255393E+06     -0.4628549560E+00
          0                 3           5            66   18     1       0.4037928295E-01      66   18    1       0.3383540788E+03      0.3747166866E+03      0.5804586727E+05      0.4037928295E-01
          0                 4           2            66   18     1       0.1478685982E-03      66   18    1       0.1212469019E+01      0.1327683214E+01      0.3747166866E+03      0.1478685982E-03

    ------------------------------------------------
       NWT REQUIRED            4 OUTER ITERATIONS 
       AND A TOTAL OF         26 INNER ITERATIONS.
    ------------------------------------------------

 NO OUTPUT CONTROL FOR STRESS PERIOD   46   TIME STEP    5
 
 SOLVING FOR HEAD 
                                                   Max.-Head-Change                        Max.-Flux-Residual
  Residual-Control   Outer-Iter.   Inner-Iter.     Column Row Layer    Max.-Head-Change    Column Row Layer    Max.-Flux-Residual            L2-New               L2-Old           Solver-Max-Delh
          0                 1          10            55   99     3      -0.4979140956E+01      55   99    3      -0.1088548486E+06      0.5358256613E+06      0.1327683214E+01     -0.4979140956E+01
          0                 2           9            56   83     2      -0.4136203829E+01      56   83    2      -0.1409493660E+05      0.5607905528E+05      0.5358256613E+06     -0.4136203829E+01
          0                 3           5            56   83     2       0.3494211233E+00      56   83    2       0.1312010105E+04      0.1348209814E+04      0.5607905528E+05      0.3494211233E+00
          0                 4           3            56   83     2       0.2234852620E-02      56   83    2       0.8201470017E+01      0.8256131278E+01      0.1348209814E+04      0.2234852620E-02

    ------------------------------------------------
       NWT REQUIRED            4 OUTER ITERATIONS 
       AND A TOTAL OF         27 INNER ITERATIONS.
    ------------------------------------------------

 NO OUTPUT CONTROL FOR STRESS PERIOD   46   TIME STEP    6
 
 SOLVING FOR HEAD 
                                                   Max.-Head-Change                        Max.-Flux-Residual
  Residual-Control   Outer-Iter.   Inner-Iter.     Column Row Layer    Max.-Head-Change    Column Row Layer    Max.-Flux-Residual            L2-New               L2-Old           Solver-Max-Delh
          0                 1          10            23   44     2      -0.5764964425E+01      55   99    3      -0.1040102025E+06      0.5058294029E+06      0.8256131278E+01     -0.5764964425E+01
          0                 2           9            23   44     2       0.5176596853E+00      55   99    3       0.1024282183E+05      0.5061440369E+05      0.5058294029E+06      0.5176596853E+00
          0                 3           5            55   36     1       0.3029353923E-01      55   36    1       0.1618411585E+03      0.1891982862E+03      0.5061440369E+05      0.3029353923E-01
          0                 4           3            55   36     1       0.2322551117E-03      55   36    1       0.1185932670E+01      0.1435640876E+01      0.1891982862E+03      0.2322551117E-03

    ------------------------------------------------
       NWT REQUIRED            4 OUTER ITERATIONS 
       AND A TOTAL OF         27 INNER ITERATIONS.
    ------------------------------------------------

 NO OUTPUT CONTROL FOR STRESS PERIOD   46   TIME STEP    7
 
 SOLVING FOR HEAD 
                                                   Max.-Head-Change                        Max.-Flux-Residual
  Residual-Control   Outer-Iter.   Inner-Iter.     Column Row Layer    Max.-Head-Change    Column Row Layer    Max.-Flux-Residual            L2-New               L2-Old           Solver-Max-Delh
          0                 1          10            55   99     3      -0.4585042604E+01      55   99    3      -0.9966436628E+05      0.4830390332E+06      0.1435640876E+01     -0.4585042604E+01
          0                 2           9            55   99     3       0.4068392627E+00      55   99    3       0.9821034616E+04      0.4827409304E+05      0.4830390332E+06      0.4068392627E+00
          0                 3           5            55   99     2       0.2222033040E-02      16   15    2       0.1018519826E+03      0.1078264063E+03      0.4827409304E+05      0.2222033040E-02

    ------------------------------------------------
       NWT REQUIRED            3 OUTER ITERATIONS 
       AND A TOTAL OF         24 INNER ITERATIONS.
    ------------------------------------------------

 NO OUTPUT CONTROL FOR STRESS PERIOD   46   TIME STEP    8
 
 SOLVING FOR HEAD 
                                                   Max.-Head-Change                        Max.-Flux-Residual
  Residual-Control   Outer-Iter.   Inner-Iter.     Column Row Layer    Max.-Head-Change    Column Row Layer    Max.-Flux-Residual            L2-New               L2-Old           Solver-Max-Delh
          0                 1          10            55   99     3      -0.4417173862E+01      55   99    3      -0.9575955090E+05      0.4652551152E+06      0.1078264063E+03     -0.4417173862E+01
          0                 2           9            84   86     2      -0.2124856583E+01      61   58    1      -0.1066822617E+05      0.4814583803E+05      0.4652551152E+06     -0.2124856583E+01
          0                 3           5            84   86     2       0.3660348262E-01      61   58    2       0.1922515548E+03      0.1949309093E+03      0.4814583803E+05      0.3660348262E-01
          0                 4           3            84   86     2       0.2694797181E-02      61   58    2       0.1730240229E+02      0.1738669486E+02      0.1949309093E+03      0.2694797181E-02

    ------------------------------------------------
       NWT REQUIRED            4 OUTER ITERATIONS 
       AND A TOTAL OF         27 INNER ITERATIONS.
    ------------------------------------------------

 NO OUTPUT CONTROL FOR STRESS PERIOD   46   TIME STEP    9
 
 SOLVING FOR HEAD 
                                                   Max.-Head-Change                        Max.-Flux-Residual
  Residual-Control   Outer-Iter.   Inner-Iter.     Column Row Layer    Max.-Head-Change    Column Row Layer    Max.-Flux-Residual            L2-New               L2-Old           Solver-Max-Delh
          0                 1          10            55   99     3      -0.4265903516E+01      55   99    3      -0.9224551810E+05      0.4507521519E+06      0.1738669486E+02     -0.4265903516E+01
          0                 2           9            55   99     3       0.3788624888E+00      61   58    2       0.9162008242E+04      0.4728639940E+05      0.4507521519E+06      0.3788624888E+00
          0                 3           5            61   58     2      -0.1738362124E-01      61   58    2      -0.8973025133E+03      0.9220625173E+03      0.4728639940E+05     -0.1738362124E-01
          0                 4           3            85   85     2      -0.1526444295E-03      15   40    3       0.6412117742E+00      0.7255238552E+00      0.9220625173E+03     -0.1526444295E-03

    ------------------------------------------------
       NWT REQUIRED            4 OUTER ITERATIONS 
       AND A TOTAL OF         27 INNER ITERATIONS.
    ------------------------------------------------

 NO OUTPUT CONTROL FOR STRESS PERIOD   46   TIME STEP   10
 
 SOLVING FOR HEAD 
                                                   Max.-Head-Change                        Max.-Flux-Residual
  Residual-Control   Outer-Iter.   Inner-Iter.     Column Row Layer    Max.-Head-Change    Column Row Layer    Max.-Flux-Residual            L2-New               L2-Old           Solver-Max-Delh
          0                 1          10            55   99     3      -0.4129461015E+01      55   99    3      -0.8907927547E+05      0.4388676248E+06      0.7255238552E+00     -0.4129461015E+01
          0                 2           9            55   99     3       0.3668854633E+00      55   99    3       0.8791594686E+04      0.4426713533E+05      0.4388676248E+06      0.3668854633E+00
          0                 3           6            78   80     1       0.1302816463E-01      65   45    1      -0.4875146309E+03      0.5286342557E+03      0.4426713533E+05      0.1302816463E-01
          0                 4           2            65   45     1      -0.7316124655E-03      65   45    1      -0.4388049659E+02      0.4388471385E+02      0.5286342557E+03     -0.7316124655E-03

    ------------------------------------------------
       NWT REQUIRED            4 OUTER ITERATIONS 
       AND A TOTAL OF         27 INNER ITERATIONS.
    ------------------------------------------------

 NO OUTPUT CONTROL FOR STRESS PERIOD   46   TIME STEP   11
 
 SOLVING FOR HEAD 
                                                   Max.-Head-Change                        Max.-Flux-Residual
  Residual-Control   Outer-Iter.   Inner-Iter.     Column Row Layer    Max.-Head-Change    Column Row Layer    Max.-Flux-Residual            L2-New               L2-Old           Solver-Max-Delh
          0                 1          10            55   99     3      -0.4006323169E+01      55   99    3      -0.8622362590E+05      0.4293531751E+06      0.4388471385E+02     -0.4006323169E+01
          0                 2           9            75   57     1      -0.1582916670E+01      65   45    1      -0.9218107889E+04      0.4484049971E+05      0.4293531751E+06     -0.1582916670E+01
          0                 3           5            75   57     1       0.1306713068E+00      65   45    1       0.8963869742E+03      0.1021518485E+04      0.4484049971E+05      0.1306713068E+00
          0                 4           3            75   57     1       0.1107605123E-02      75   57    1       0.3689272404E+01      0.4400376255E+01      0.1021518485E+04      0.1107605123E-02

    ------------------------------------------------
       NWT REQUIRED            4 OUTER ITERATIONS 
       AND A TOTAL OF         27 INNER ITERATIONS.
    ------------------------------------------------

 OUTPUT CONTROL FOR STRESS PERIOD   46   TIME STEP   12
    SAVE BUDGET
 UBDSV1 SAVING "         STORAGE" ON UNIT  39 AT TIME STEP 12, STRESS PERIOD  46
 UBDSV2 SAVING "   CONSTANT HEAD" ON UNIT  39 AT TIME STEP 12, STRESS PERIOD  46
 UBDSV1 SAVING "FLOW RIGHT FACE " ON UNIT  39 AT TIME STEP 12, STRESS PERIOD  46
 UBDSV1 SAVING "FLOW FRONT FACE " ON UNIT  39 AT TIME STEP 12, STRESS PERIOD  46
 UBDSV1 SAVING "FLOW LOWER FACE " ON UNIT  39 AT TIME STEP 12, STRESS PERIOD  46
 UBDSV4 SAVING "           WELLS" ON UNIT  39 AT TIME STEP 12, STRESS PERIOD  46
 UBDSV3 SAVING "              ET" ON UNIT  39 AT TIME STEP 12, STRESS PERIOD  46
 UBDSV3 SAVING "        RECHARGE" ON UNIT  39 AT TIME STEP 12, STRESS PERIOD  46
1
  VOLUMETRIC BUDGET FOR ENTIRE MODEL AT END OF TIME STEP   12, STRESS PERIOD  46
  ------------------------------------------------------------------------------

     CUMULATIVE VOLUMES      L**3       RATES FOR THIS TIME STEP      L**3/T
     ------------------                 ------------------------

           IN:                                      IN:
           ---                                      ---
             STORAGE     =296994603008.0000               STORAGE     =    13066552.0000
       CONSTANT HEAD     = 27293882368.0000         CONSTANT HEAD     =     2163758.5000
               WELLS     = 20592756736.0000                 WELLS     =     1225642.0000
                  ET     =           0.0000                    ET     =           0.0000
            RECHARGE     =336600203264.0000              RECHARGE     =    28895310.0000

                TOTAL IN =681481469952.0000                  TOTAL IN =    45351264.0000

          OUT:                                     OUT:
          ----                                     ----
             STORAGE     = 58112839680.0000               STORAGE     =     6681567.0000
       CONSTANT HEAD     = 56684257280.0000         CONSTANT HEAD     =     2403615.2500
               WELLS     =550117244928.0000                 WELLS     =    34292240.0000
                  ET     = 16566321152.0000                    ET     =     1973844.3750
            RECHARGE     =           0.0000              RECHARGE     =           0.0000

               TOTAL OUT =681480683520.0000                 TOTAL OUT =    45351268.0000

                IN - OUT =      786432.0000                  IN - OUT =          -4.0000

     PERCENT DISCREPANCY =           0.00         PERCENT DISCREPANCY =          -0.00






         TIME SUMMARY AT END OF TIME STEP   12 IN STRESS PERIOD   46
                    SECONDS     MINUTES      HOURS       DAYS        YEARS
                    -----------------------------------------------------------
   TIME STEP LENGTH 2.62800E+06  43800.      730.00      30.417     8.32763E-02
 STRESS PERIOD TIME 3.15360E+07 5.25600E+05  8760.0      365.00     0.99932    
         TOTAL TIME 1.45170E+09 2.41949E+07 4.03249E+05  16802.      46.001    
1
1
                            STRESS PERIOD NO.   47, LENGTH =   365.0000    
                            -----------------------------------------------

                              NUMBER OF TIME STEPS =    12

                               MULTIPLIER FOR DELT =     1.000

                            INITIAL TIME STEP SIZE =   30.41667    

   1899 WELLS

 REUSING SURF FROM LAST STRESS PERIOD

 REUSING EVTR FROM LAST STRESS PERIOD

 REUSING EXDP FROM LAST STRESS PERIOD



                           RECHARGE
 READING ON UNIT   16 WITH FORMAT: (15F5.0)            


     63 TIME-VARIANT SPECIFIED-HEAD CELLS
 
 SOLVING FOR HEAD 
                                                   Max.-Head-Change                        Max.-Flux-Residual
  Residual-Control   Outer-Iter.   Inner-Iter.     Column Row Layer    Max.-Head-Change    Column Row Layer    Max.-Flux-Residual            L2-New               L2-Old           Solver-Max-Delh
          0                 1          11            84   50     3       0.4304480688E+02      58   96    3       0.4268693385E+06      0.1287972104E+07      0.4400376255E+01      0.4304480688E+02
          0                 2          10            23   44     2      -0.1411463811E+02      23   44    2      -0.2983748616E+06      0.3277291442E+06      0.1287972104E+07     -0.1411463811E+02
          0                 3           8            23   45     2       0.3385411797E+01      23   44    2      -0.2673154433E+05      0.3011330322E+05      0.3277291442E+06      0.3385411797E+01
          0                 4           7            22   44     2       0.3043026524E+00      24   44    2       0.7478500186E+03      0.1228478585E+04      0.3011330322E+05      0.3043026524E+00
          0                 5           6            22   44     2       0.3042822745E-01      24   44    2       0.6716196917E+02      0.1142497481E+03      0.1228478585E+04      0.3042822745E-01
          0                 6           4            22   44     2       0.3040406788E-02      24   44    2       0.6030711287E+01      0.1058030931E+02      0.1142497481E+03      0.3040406788E-02

    ------------------------------------------------
       NWT REQUIRED            6 OUTER ITERATIONS 
       AND A TOTAL OF         46 INNER ITERATIONS.
    ------------------------------------------------

 NO OUTPUT CONTROL FOR STRESS PERIOD   47   TIME STEP    1
 
 SOLVING FOR HEAD 
                                                   Max.-Head-Change                        Max.-Flux-Residual
  Residual-Control   Outer-Iter.   Inner-Iter.     Column Row Layer    Max.-Head-Change    Column Row Layer    Max.-Flux-Residual            L2-New               L2-Old           Solver-Max-Delh
          0                 1          10            56   99     3       0.1113924098E+02      58   96    3       0.2833776563E+06      0.8270382599E+06      0.1058030931E+02      0.1113924098E+02
          0                 2           9            58   96     3      -0.1141994399E+01      58   96    3      -0.4176590159E+05      0.9250551218E+05      0.8270382599E+06     -0.1141994399E+01
          0                 3           5            29   81     2       0.7468975698E-01      58   95    3      -0.6270284518E+03      0.6458101155E+03      0.9250551218E+05      0.7468975698E-01
          0                 4           3            29   81     2       0.1653629423E-02      64   45    1      -0.2139498580E+01      0.3434029587E+01      0.6458101155E+03      0.1653629423E-02

    ------------------------------------------------
       NWT REQUIRED            4 OUTER ITERATIONS 
       AND A TOTAL OF         27 INNER ITERATIONS.
    ------------------------------------------------

 NO OUTPUT CONTROL FOR STRESS PERIOD   47   TIME STEP    2
 
 SOLVING FOR HEAD 
                                                   Max.-Head-Change                        Max.-Flux-Residual
  Residual-Control   Outer-Iter.   Inner-Iter.     Column Row Layer    Max.-Head-Change    Column Row Layer    Max.-Flux-Residual            L2-New               L2-Old           Solver-Max-Delh
          0                 1          10            56   99     3       0.9644245100E+01      56   99    3       0.2324531179E+06      0.6650792846E+06      0.3434029587E+01      0.9644245100E+01
          0                 2           9            56   99     3      -0.8721580249E+00      56   99    3      -0.2340773728E+05      0.6984031798E+05      0.6650792846E+06     -0.8721580249E+00
          0                 3           6            74   57     1       0.5981203395E-01      59   96    3      -0.1348476003E+04      0.1580789026E+04      0.6984031798E+05      0.5981203395E-01
          0                 4           3            74   57     1       0.4323045491E-03      74   57    1       0.1684571387E+01      0.1972362781E+01      0.1580789026E+04      0.4323045491E-03

    ------------------------------------------------
       NWT REQUIRED            4 OUTER ITERATIONS 
       AND A TOTAL OF         28 INNER ITERATIONS.
    ------------------------------------------------

 NO OUTPUT CONTROL FOR STRESS PERIOD   47   TIME STEP    3
 
 SOLVING FOR HEAD 
                                                   Max.-Head-Change                        Max.-Flux-Residual
  Residual-Control   Outer-Iter.   Inner-Iter.     Column Row Layer    Max.-Head-Change    Column Row Layer    Max.-Flux-Residual            L2-New               L2-Old           Solver-Max-Delh
          0                 1          10            56   99     3       0.8392049980E+01      56   99    3       0.2012715925E+06      0.5829303729E+06      0.1972362781E+01      0.8392049980E+01
          0                 2           9            56   99     3      -0.7595748687E+00      56   99    3      -0.2027037854E+05      0.5790870243E+05      0.5829303729E+06     -0.7595748687E+00
          0                 3           5            23   46     2       0.5630231008E-01      75   60    1       0.2045588687E+03      0.3985677455E+03      0.5790870243E+05      0.5630231008E-01
          0                 4           3            23   46     2       0.4199693764E-03      57   99    3       0.1425539378E+02      0.1468881593E+02      0.3985677455E+03      0.4199693764E-03

    ------------------------------------------------
       NWT REQUIRED            4 OUTER ITERATIONS 
       AND A TOTAL OF         27 INNER ITERATIONS.
    ------------------------------------------------

 NO OUTPUT CONTROL FOR STRESS PERIOD   47   TIME STEP    4
 
 SOLVING FOR HEAD 
                                                   Max.-Head-Change                        Max.-Flux-Residual
  Residual-Control   Outer-Iter.   Inner-Iter.     Column Row Layer    Max.-Head-Change    Column Row Layer    Max.-Flux-Residual            L2-New               L2-Old           Solver-Max-Delh
          0                 1          10            56   99     3       0.7334486839E+01      56   99    3       0.1751480273E+06      0.5338994755E+06      0.1468881593E+02      0.7334486839E+01
          0                 2           9            23   46     2       0.1381182458E+01      56   99    3      -0.1763745792E+05      0.5427220972E+05      0.5338994755E+06      0.1381182458E+01
          0                 3           6            79   59     1       0.3735089164E-01      23   46    3      -0.2155072550E+03      0.2910930974E+03      0.5427220972E+05      0.3735089164E-01
          0                 4           4            79   59     1       0.3698992034E-03      21   17    2       0.9997201517E+01      0.1018968869E+02      0.2910930974E+03      0.3698992034E-03

    ------------------------------------------------
       NWT REQUIRED            4 OUTER ITERATIONS 
       AND A TOTAL OF         29 INNER ITERATIONS.
    ------------------------------------------------

 NO OUTPUT CONTROL FOR STRESS PERIOD   47   TIME STEP    5
 
 SOLVING FOR HEAD 
                                                   Max.-Head-Change                        Max.-Flux-Residual
  Residual-Control   Outer-Iter.   Inner-Iter.     Column Row Layer    Max.-Head-Change    Column Row Layer    Max.-Flux-Residual            L2-New               L2-Old           Solver-Max-Delh
          0                 1          10            56   99     3       0.6450298882E+01      56   99    3       0.1532083957E+06      0.5003595888E+06      0.1018968869E+02      0.6450298882E+01
          0                 2           9            56   99     3      -0.5832767976E+00      56   99    3      -0.1542649123E+05      0.5008259422E+05      0.5003595888E+06     -0.5832767976E+00
          0                 3           5            73   14     1      -0.1689989712E+00      73   14    1      -0.6540040788E+04      0.6542426351E+04      0.5008259422E+05     -0.1689989712E+00
          0                 4           4            73   14     1      -0.1522196069E-01      73   14    1      -0.5889363392E+03      0.5889443538E+03      0.6542426351E+04     -0.1522196069E-01
          0                 5           2            73   14     1      -0.1368689788E-02      73   14    1      -0.5294810151E+02      0.5294881690E+02      0.5889443538E+03     -0.1368689788E-02

    ------------------------------------------------
       NWT REQUIRED            5 OUTER ITERATIONS 
       AND A TOTAL OF         30 INNER ITERATIONS.
    ------------------------------------------------

 NO OUTPUT CONTROL FOR STRESS PERIOD   47   TIME STEP    6
 
 SOLVING FOR HEAD 
                                                   Max.-Head-Change                        Max.-Flux-Residual
  Residual-Control   Outer-Iter.   Inner-Iter.     Column Row Layer    Max.-Head-Change    Column Row Layer    Max.-Flux-Residual            L2-New               L2-Old           Solver-Max-Delh
          0                 1          10            56   99     3       0.5691742195E+01      56   99    3       0.1346430811E+06      0.4763940319E+06      0.5294881690E+02      0.5691742195E+01
          0                 2           9            73   14     1      -0.1760673334E+01      56   99    3      -0.1355299467E+05      0.4985137340E+05      0.4763940319E+06     -0.1760673334E+01
          0                 3           5            73   14     1       0.1536032581E+00      73   14    1       0.1203199866E+04      0.1438241330E+04      0.4985137340E+05      0.1536032581E+00
          0                 4           3            59   41     1      -0.1755195653E-02      59   41    1      -0.6823940247E+02      0.6839754990E+02      0.1438241330E+04     -0.1755195653E-02

    ------------------------------------------------
       NWT REQUIRED            4 OUTER ITERATIONS 
       AND A TOTAL OF         27 INNER ITERATIONS.
    ------------------------------------------------

 NO OUTPUT CONTROL FOR STRESS PERIOD   47   TIME STEP    7
 
 SOLVING FOR HEAD 
                                                   Max.-Head-Change                        Max.-Flux-Residual
  Residual-Control   Outer-Iter.   Inner-Iter.     Column Row Layer    Max.-Head-Change    Column Row Layer    Max.-Flux-Residual            L2-New               L2-Old           Solver-Max-Delh
          0                 1          10            56   99     3       0.5041715235E+01      56   99    3       0.1188190275E+06      0.4580364252E+06      0.6839754990E+02      0.5041715235E+01
          0                 2           9            59   41     1      -0.9494904518E+00      56   99    3      -0.1195583473E+05      0.4658566318E+05      0.4580364252E+06     -0.9494904518E+00
          0                 3           5            59   41     1       0.8106432749E-01      56   41    1       0.5507219525E+03      0.7328750629E+03      0.4658566318E+05      0.8106432749E-01
          0                 4           3            59   41     1       0.4499869511E-03      59   41    1       0.2433425738E+01      0.2644987962E+01      0.7328750629E+03      0.4499869511E-03

    ------------------------------------------------
       NWT REQUIRED            4 OUTER ITERATIONS 
       AND A TOTAL OF         27 INNER ITERATIONS.
    ------------------------------------------------

 NO OUTPUT CONTROL FOR STRESS PERIOD   47   TIME STEP    8
 
 SOLVING FOR HEAD 
                                                   Max.-Head-Change                        Max.-Flux-Residual
  Residual-Control   Outer-Iter.   Inner-Iter.     Column Row Layer    Max.-Head-Change    Column Row Layer    Max.-Flux-Residual            L2-New               L2-Old           Solver-Max-Delh
          0                 1          10            56   99     3       0.4480935606E+01      56   99    3       0.1052487208E+06      0.4432337414E+06      0.2644987962E+01      0.4480935606E+01
          0                 2           9            75   54     1      -0.6892106372E+00      56   99    3      -0.1058618636E+05      0.4490761145E+05      0.4432337414E+06     -0.6892106372E+00
          0                 3           5            75   54     1       0.5973960981E-01      64   94    1       0.3723634251E+03      0.4832698161E+03      0.4490761145E+05      0.5973960981E-01
          0                 4           3            75   54     1       0.2603148234E-03      75   54    1       0.1131603392E+01      0.1683512779E+01      0.4832698161E+03      0.2603148234E-03

    ------------------------------------------------
       NWT REQUIRED            4 OUTER ITERATIONS 
       AND A TOTAL OF         27 INNER ITERATIONS.
    ------------------------------------------------

 NO OUTPUT CONTROL FOR STRESS PERIOD   47   TIME STEP    9
 
 SOLVING FOR HEAD 
                                                   Max.-Head-Change                        Max.-Flux-Residual
  Residual-Control   Outer-Iter.   Inner-Iter.     Column Row Layer    Max.-Head-Change    Column Row Layer    Max.-Flux-Residual            L2-New               L2-Old           Solver-Max-Delh
          0                 1          10            56   99     3       0.3996105503E+01      56   99    3       0.9355670477E+05      0.4308263877E+06      0.1683512779E+01      0.3996105503E+01
          0                 2           9            76   58     1      -0.3974075242E+00      70   19    2       0.1102824389E+05      0.4447471925E+05      0.4308263877E+06     -0.3974075242E+00
          0                 3           5            76   58     1       0.3275429280E-01      76   58    1       0.1008454330E+03      0.1602332450E+03      0.4447471925E+05      0.3275429280E-01
          0                 4           3            76   58     1       0.2785900155E-03      59  100    1       0.1394284487E+01      0.2219684711E+01      0.1602332450E+03      0.2785900155E-03

    ------------------------------------------------
       NWT REQUIRED            4 OUTER ITERATIONS 
       AND A TOTAL OF         27 INNER ITERATIONS.
    ------------------------------------------------

 NO OUTPUT CONTROL FOR STRESS PERIOD   47   TIME STEP   10
 
 SOLVING FOR HEAD 
                                                   Max.-Head-Change                        Max.-Flux-Residual
  Residual-Control   Outer-Iter.   Inner-Iter.     Column Row Layer    Max.-Head-Change    Column Row Layer    Max.-Flux-Residual            L2-New               L2-Old           Solver-Max-Delh
          0                 1          10            56   99     3       0.3574995291E+01      56   99    3       0.8344021828E+05      0.4202806361E+06      0.2219684711E+01      0.3574995291E+01
          0                 2           9            23   41     2      -0.3922964143E+00      56   99    3      -0.8386067387E+04      0.4308764898E+05      0.4202806361E+06     -0.3922964143E+00
          0                 3           5            40   76     2       0.1367995166E-01      24   41    2      -0.9164123401E+02      0.1489425374E+03      0.4308764898E+05      0.1367995166E-01
          0                 4           3            23   41     2       0.3235663661E-03      23   41    2       0.7229134302E+01      0.7273603072E+01      0.1489425374E+03      0.3235663661E-03

    ------------------------------------------------
       NWT REQUIRED            4 OUTER ITERATIONS 
       AND A TOTAL OF         27 INNER ITERATIONS.
    ------------------------------------------------

 NO OUTPUT CONTROL FOR STRESS PERIOD   47   TIME STEP   11
 
 SOLVING FOR HEAD 
                                                   Max.-Head-Change                        Max.-Flux-Residual
  Residual-Control   Outer-Iter.   Inner-Iter.     Column Row Layer    Max.-Head-Change    Column Row Layer    Max.-Flux-Residual            L2-New               L2-Old           Solver-Max-Delh
          0                 1          10            56   99     3       0.3207830175E+01      56   99    3       0.7465213279E+05      0.4113680110E+06      0.7273603072E+01      0.3207830175E+01
          0                 2           9            56   99     3      -0.2894900575E+00      76   57    2       0.9069467092E+04      0.4215895111E+05      0.4113680110E+06     -0.2894900575E+00
          0                 3           5            56   99     2      -0.1602687209E-02      23   41    3      -0.7448167703E+02      0.1178010677E+03      0.4215895111E+05     -0.1602687209E-02

    ------------------------------------------------
       NWT REQUIRED            3 OUTER ITERATIONS 
       AND A TOTAL OF         24 INNER ITERATIONS.
    ------------------------------------------------

 OUTPUT CONTROL FOR STRESS PERIOD   47   TIME STEP   12
    SAVE BUDGET
 UBDSV1 SAVING "         STORAGE" ON UNIT  39 AT TIME STEP 12, STRESS PERIOD  47
 UBDSV2 SAVING "   CONSTANT HEAD" ON UNIT  39 AT TIME STEP 12, STRESS PERIOD  47
 UBDSV1 SAVING "FLOW RIGHT FACE " ON UNIT  39 AT TIME STEP 12, STRESS PERIOD  47
 UBDSV1 SAVING "FLOW FRONT FACE " ON UNIT  39 AT TIME STEP 12, STRESS PERIOD  47
 UBDSV1 SAVING "FLOW LOWER FACE " ON UNIT  39 AT TIME STEP 12, STRESS PERIOD  47
 UBDSV4 SAVING "           WELLS" ON UNIT  39 AT TIME STEP 12, STRESS PERIOD  47
 UBDSV3 SAVING "              ET" ON UNIT  39 AT TIME STEP 12, STRESS PERIOD  47
 UBDSV3 SAVING "        RECHARGE" ON UNIT  39 AT TIME STEP 12, STRESS PERIOD  47
1
  VOLUMETRIC BUDGET FOR ENTIRE MODEL AT END OF TIME STEP   12, STRESS PERIOD  47
  ------------------------------------------------------------------------------

     CUMULATIVE VOLUMES      L**3       RATES FOR THIS TIME STEP      L**3/T
     ------------------                 ------------------------

           IN:                                      IN:
           ---                                      ---
             STORAGE     =303088402432.0000               STORAGE     =    15460090.0000
       CONSTANT HEAD     = 28097105920.0000         CONSTANT HEAD     =     2237144.5000
               WELLS     = 21040113664.0000                 WELLS     =     1225642.0000
                  ET     =           0.0000                    ET     =           0.0000
            RECHARGE     =344540020736.0000              RECHARGE     =    21752544.0000

                TOTAL IN =696765644800.0000                  TOTAL IN =    40675420.0000

          OUT:                                     OUT:
          ----                                     ----
             STORAGE     = 60059201536.0000               STORAGE     =     4249973.5000
       CONSTANT HEAD     = 57577639936.0000         CONSTANT HEAD     =     2462955.0000
               WELLS     =561942691840.0000                 WELLS     =    32397412.0000
                  ET     = 17185327104.0000                    ET     =     1565083.6250
            RECHARGE     =           0.0000              RECHARGE     =           0.0000

               TOTAL OUT =696764858368.0000                 TOTAL OUT =    40675424.0000

                IN - OUT =      786432.0000                  IN - OUT =          -4.0000

     PERCENT DISCREPANCY =           0.00         PERCENT DISCREPANCY =          -0.00






         TIME SUMMARY AT END OF TIME STEP   12 IN STRESS PERIOD   47
                    SECONDS     MINUTES      HOURS       DAYS        YEARS
                    -----------------------------------------------------------
   TIME STEP LENGTH 2.62800E+06  43800.      730.00      30.417     8.32763E-02
 STRESS PERIOD TIME 3.15360E+07 5.25600E+05  8760.0      365.00     0.99932    
         TOTAL TIME 1.48323E+09 2.47205E+07 4.12009E+05  17167.      47.001    
1
1
                            STRESS PERIOD NO.   48, LENGTH =   365.0000    
                            -----------------------------------------------

                              NUMBER OF TIME STEPS =    12

                               MULTIPLIER FOR DELT =     1.000

                            INITIAL TIME STEP SIZE =   30.41667    

   1855 WELLS

 REUSING SURF FROM LAST STRESS PERIOD

 REUSING EVTR FROM LAST STRESS PERIOD

 REUSING EXDP FROM LAST STRESS PERIOD



                           RECHARGE
 READING ON UNIT   16 WITH FORMAT: (15F5.0)            


     63 TIME-VARIANT SPECIFIED-HEAD CELLS
 
 SOLVING FOR HEAD 
                                                   Max.-Head-Change                        Max.-Flux-Residual
  Residual-Control   Outer-Iter.   Inner-Iter.     Column Row Layer    Max.-Head-Change    Column Row Layer    Max.-Flux-Residual            L2-New               L2-Old           Solver-Max-Delh
          0                 1          11            84   56     3      -0.3424334272E+02      77   56    2       0.1520129006E+06      0.8196052335E+06      0.1178010677E+03     -0.3424334272E+02
          0                 2          10            23   46     2      -0.1263361715E+02      23   46    2      -0.2862405912E+06      0.2983350426E+06      0.8196052335E+06     -0.1263361715E+02
          0                 3           8            23   45     2       0.1552890751E+01      23   46    2      -0.2045070270E+05      0.2283856786E+05      0.2983350426E+06      0.1552890751E+01
          0                 4           7            23   45     2       0.1808203876E+00      23   45    2       0.5175290955E+03      0.1059228589E+04      0.2283856786E+05      0.1808203876E+00
          0                 5           6            23   45     2       0.1730446398E-01      23   45    2       0.4885191728E+02      0.9620721479E+02      0.1059228589E+04      0.1730446398E-01
          0                 6           5            23   45     2       0.1653924728E-02      23   45    2       0.4667792108E+01      0.8984552612E+01      0.9620721479E+02      0.1653924728E-02

    ------------------------------------------------
       NWT REQUIRED            6 OUTER ITERATIONS 
       AND A TOTAL OF         47 INNER ITERATIONS.
    ------------------------------------------------

 NO OUTPUT CONTROL FOR STRESS PERIOD   48   TIME STEP    1
 
 SOLVING FOR HEAD 
                                                   Max.-Head-Change                        Max.-Flux-Residual
  Residual-Control   Outer-Iter.   Inner-Iter.     Column Row Layer    Max.-Head-Change    Column Row Layer    Max.-Flux-Residual            L2-New               L2-Old           Solver-Max-Delh
          0                 1          10            84   56     3      -0.7511102474E+01      77   56    2       0.9074000059E+05      0.5617437548E+06      0.8984552612E+01     -0.7511102474E+01
          0                 2           9            84   56     3       0.6825956054E+00      77   56    2      -0.9122170524E+04      0.5637724211E+05      0.5617437548E+06      0.6825956054E+00
          0                 3           5            66   22     1       0.1139461029E-01      60   70    1       0.3466453602E+03      0.3966401356E+03      0.5637724211E+05      0.1139461029E-01
          0                 4           3            22   36     2      -0.1553256801E-03      22   36    2      -0.5311889214E+01      0.6488010842E+01      0.3966401356E+03     -0.1553256801E-03

    ------------------------------------------------
       NWT REQUIRED            4 OUTER ITERATIONS 
       AND A TOTAL OF         27 INNER ITERATIONS.
    ------------------------------------------------

 NO OUTPUT CONTROL FOR STRESS PERIOD   48   TIME STEP    2
 
 SOLVING FOR HEAD 
                                                   Max.-Head-Change                        Max.-Flux-Residual
  Residual-Control   Outer-Iter.   Inner-Iter.     Column Row Layer    Max.-Head-Change    Column Row Layer    Max.-Flux-Residual            L2-New               L2-Old           Solver-Max-Delh
          0                 1          10            56   99     3       0.3032228588E+01      56   99    3       0.7126755970E+05      0.4933869770E+06      0.6488010842E+01      0.3032228588E+01
          0                 2           9            56   99     3      -0.2734309840E+00      56   99    3      -0.7153954276E+04      0.4960875422E+05      0.4933869770E+06     -0.2734309840E+00
          0                 3           5            58  100     2      -0.3593926121E-02      58  100    3       0.2813485306E+02      0.5594359881E+02      0.4960875422E+05     -0.3593926121E-02

    ------------------------------------------------
       NWT REQUIRED            3 OUTER ITERATIONS 
       AND A TOTAL OF         24 INNER ITERATIONS.
    ------------------------------------------------

 NO OUTPUT CONTROL FOR STRESS PERIOD   48   TIME STEP    3
 
 SOLVING FOR HEAD 
                                                   Max.-Head-Change                        Max.-Flux-Residual
  Residual-Control   Outer-Iter.   Inner-Iter.     Column Row Layer    Max.-Head-Change    Column Row Layer    Max.-Flux-Residual            L2-New               L2-Old           Solver-Max-Delh
          0                 1          10            56   99     3       0.2703271423E+01      56   99    3       0.6333298786E+05      0.4612250765E+06      0.5594359881E+02      0.2703271423E+01
          0                 2           9            23   45     2      -0.4481111867E+00      23   45    2      -0.8182976861E+04      0.4717952954E+05      0.4612250765E+06     -0.4481111867E+00
          0                 3           5            52   37     1       0.3466790878E-01      52   37    1       0.4704449080E+03      0.6485857277E+03      0.4717952954E+05      0.3466790878E-01
          0                 4           3            23   45     2       0.5653827514E-03      23   45    2       0.1188850423E+02      0.1601428010E+02      0.6485857277E+03      0.5653827514E-03

    ------------------------------------------------
       NWT REQUIRED            4 OUTER ITERATIONS 
       AND A TOTAL OF         27 INNER ITERATIONS.
    ------------------------------------------------

 NO OUTPUT CONTROL FOR STRESS PERIOD   48   TIME STEP    4
 
 SOLVING FOR HEAD 
                                                   Max.-Head-Change                        Max.-Flux-Residual
  Residual-Control   Outer-Iter.   Inner-Iter.     Column Row Layer    Max.-Head-Change    Column Row Layer    Max.-Flux-Residual            L2-New               L2-Old           Solver-Max-Delh
          0                 1          10            56   99     3       0.2417227835E+01      56   99    3       0.5646421854E+05      0.4421046921E+06      0.1601428010E+02      0.2417227835E+01
          0                 2           9            80   52     1      -0.9922104462E+00      80   52    1      -0.5610091426E+04      0.4486054687E+05      0.4421046921E+06     -0.9922104462E+00
          0                 3           5            80   52     1       0.8322390631E-01      80   52    1       0.5154975568E+03      0.5615557633E+03      0.4486054687E+05      0.8322390631E-01
          0                 4           3            80   52     1       0.5947366497E-03      80   52    1       0.3604624115E+01      0.3881744207E+01      0.5615557633E+03      0.5947366497E-03

    ------------------------------------------------
       NWT REQUIRED            4 OUTER ITERATIONS 
       AND A TOTAL OF         27 INNER ITERATIONS.
    ------------------------------------------------

 NO OUTPUT CONTROL FOR STRESS PERIOD   48   TIME STEP    5
 
 SOLVING FOR HEAD 
                                                   Max.-Head-Change                        Max.-Flux-Residual
  Residual-Control   Outer-Iter.   Inner-Iter.     Column Row Layer    Max.-Head-Change    Column Row Layer    Max.-Flux-Residual            L2-New               L2-Old           Solver-Max-Delh
          0                 1          10            80   52     1      -0.2453160272E+01      90   52    1      -0.5249885025E+05      0.4292427564E+06      0.3881744207E+01     -0.2453160272E+01
          0                 2           9            56   99     3      -0.2080153603E+00      90   52    1       0.5237054360E+04      0.4292880803E+05      0.4292427564E+06     -0.2080153603E+00
          0                 3           5            54  107     2       0.1716612653E-02      55  111    1       0.1071907330E+02      0.3003029356E+02      0.4292880803E+05      0.1716612653E-02

    ------------------------------------------------
       NWT REQUIRED            3 OUTER ITERATIONS 
       AND A TOTAL OF         24 INNER ITERATIONS.
    ------------------------------------------------

 NO OUTPUT CONTROL FOR STRESS PERIOD   48   TIME STEP    6
 
 SOLVING FOR HEAD 
                                                   Max.-Head-Change                        Max.-Flux-Residual
  Residual-Control   Outer-Iter.   Inner-Iter.     Column Row Layer    Max.-Head-Change    Column Row Layer    Max.-Flux-Residual            L2-New               L2-Old           Solver-Max-Delh
          0                 1          10            56   99     3       0.2128215136E+01      90   52    1      -0.5162086085E+05      0.4196267148E+06      0.3003029356E+02      0.2128215136E+01
          0                 2           9            55   81     2      -0.3595952240E+01      55   81    2      -0.1131146962E+05      0.4470088296E+05      0.4196267148E+06     -0.3595952240E+01
          0                 3           6            55   81     2       0.3022477493E+00      60   63    1      -0.5848747191E+04      0.5996610528E+04      0.4470088296E+05      0.3022477493E+00
          0                 4           4            60   63     1      -0.4818488246E-02      60   63    1      -0.4742820197E+03      0.4790630430E+03      0.5996610528E+04     -0.4818488246E-02

    ------------------------------------------------
       NWT REQUIRED            4 OUTER ITERATIONS 
       AND A TOTAL OF         29 INNER ITERATIONS.
    ------------------------------------------------

 NO OUTPUT CONTROL FOR STRESS PERIOD   48   TIME STEP    7
 
 SOLVING FOR HEAD 
                                                   Max.-Head-Change                        Max.-Flux-Residual
  Residual-Control   Outer-Iter.   Inner-Iter.     Column Row Layer    Max.-Head-Change    Column Row Layer    Max.-Flux-Residual            L2-New               L2-Old           Solver-Max-Delh
          0                 1          10            55   81     2      -0.2026082878E+01      90   52    1      -0.5080403928E+05      0.4120371256E+06      0.4790630430E+03     -0.2026082878E+01
          0                 2           9            56   99     3      -0.1773448969E+00      60   63    1      -0.8251040611E+04      0.4249245668E+05      0.4120371256E+06     -0.1773448969E+00
          0                 3           6            44   35     1      -0.2058806887E-01      44   35    1      -0.2366615306E+04      0.2506290354E+04      0.4249245668E+05     -0.2058806887E-01
          0                 4           5            44   35     1      -0.1854442272E-02      44   35    1      -0.2130661051E+03      0.2131472785E+03      0.2506290354E+04     -0.1854442272E-02

    ------------------------------------------------
       NWT REQUIRED            4 OUTER ITERATIONS 
       AND A TOTAL OF         30 INNER ITERATIONS.
    ------------------------------------------------

 NO OUTPUT CONTROL FOR STRESS PERIOD   48   TIME STEP    8
 
 SOLVING FOR HEAD 
                                                   Max.-Head-Change                        Max.-Flux-Residual
  Residual-Control   Outer-Iter.   Inner-Iter.     Column Row Layer    Max.-Head-Change    Column Row Layer    Max.-Flux-Residual            L2-New               L2-Old           Solver-Max-Delh
          0                 1          10            56   99     3       0.1815406845E+01      90   52    1      -0.5003566448E+05      0.4054743027E+06      0.2131472785E+03      0.1815406845E+01
          0                 2           9            36   29     1      -0.1647276696E+00      44   35    1      -0.7288516413E+04      0.4234472908E+05      0.4054743027E+06     -0.1647276696E+00
          0                 3           6            36   29     1       0.1469712967E-01      44   35    1       0.7207379037E+03      0.9539492019E+03      0.4234472908E+05      0.1469712967E-01
          0                 4           3            30   31     1      -0.2118679481E-03      30   31    1      -0.1033411461E+02      0.1036257744E+02      0.9539492019E+03     -0.2118679481E-03

    ------------------------------------------------
       NWT REQUIRED            4 OUTER ITERATIONS 
       AND A TOTAL OF         28 INNER ITERATIONS.
    ------------------------------------------------

 NO OUTPUT CONTROL FOR STRESS PERIOD   48   TIME STEP    9
 
 SOLVING FOR HEAD 
                                                   Max.-Head-Change                        Max.-Flux-Residual
  Residual-Control   Outer-Iter.   Inner-Iter.     Column Row Layer    Max.-Head-Change    Column Row Layer    Max.-Flux-Residual            L2-New               L2-Old           Solver-Max-Delh
          0                 1          10            56   99     3       0.1676863297E+01      90   52    1      -0.4923771259E+05      0.3996622958E+06      0.1036257744E+02      0.1676863297E+01
          0                 2           9            83   61     1      -0.1156387088E+01      90   52    1       0.4911283733E+04      0.4021097459E+05      0.3996622958E+06     -0.1156387088E+01
          0                 3           5            83   61     1       0.6737951592E-01      30   31    1       0.3759700436E+03      0.4182597956E+03      0.4021097459E+05      0.6737951592E-01
          0                 4           3            83   61     1       0.2198394629E-02      83   61    1       0.2189710025E+01      0.2298244621E+01      0.4182597956E+03      0.2198394629E-02

    ------------------------------------------------
       NWT REQUIRED            4 OUTER ITERATIONS 
       AND A TOTAL OF         27 INNER ITERATIONS.
    ------------------------------------------------

 NO OUTPUT CONTROL FOR STRESS PERIOD   48   TIME STEP   10

 INTERPOLATION FOR HEAD OBS#  252, ID 3260-48-334  CHANGED BECAUSE AT LEAST ONE
 NEIGHBORING CELL REQUIRED FOR INTERPOLATION IS DRY OR INACTIVE (OBS2BAS7SE)

 INTERPOLATION FOR HEAD OBS#  636, ID 3014-48-334  CHANGED BECAUSE AT LEAST ONE
 NEIGHBORING CELL REQUIRED FOR INTERPOLATION IS DRY OR INACTIVE (OBS2BAS7SE)

 INTERPOLATION FOR HEAD OBS# 1338, ID 2869-48-334  CHANGED BECAUSE AT LEAST ONE
 NEIGHBORING CELL REQUIRED FOR INTERPOLATION IS DRY OR INACTIVE (OBS2BAS7SE)

 INTERPOLATION FOR HEAD OBS# 1401, ID 2840-48-334  CHANGED BECAUSE AT LEAST ONE
 NEIGHBORING CELL REQUIRED FOR INTERPOLATION IS DRY OR INACTIVE (OBS2BAS7SE)
 
 SOLVING FOR HEAD 
                                                   Max.-Head-Change                        Max.-Flux-Residual
  Residual-Control   Outer-Iter.   Inner-Iter.     Column Row Layer    Max.-Head-Change    Column Row Layer    Max.-Flux-Residual            L2-New               L2-Old           Solver-Max-Delh
          0                 1          10            83   61     1      -0.2464511846E+01      90   52    1      -0.4843136287E+05      0.3944665321E+06      0.2298244621E+01     -0.2464511846E+01
          0                 2           9            76   57     1      -0.9628968280E+00      90   52    1       0.4830516500E+04      0.3977503184E+05      0.3944665321E+06     -0.9628968280E+00
          0                 3           5            76   57     1       0.7503488836E-01      48   40    1       0.4743482206E+03      0.5268426077E+03      0.3977503184E+05      0.7503488836E-01
          0                 4           3            76   57     1       0.9728937168E-03      76   57    1       0.2131927667E+01      0.2205151599E+01      0.5268426077E+03      0.9728937168E-03

    ------------------------------------------------
       NWT REQUIRED            4 OUTER ITERATIONS 
       AND A TOTAL OF         27 INNER ITERATIONS.
    ------------------------------------------------

 NO OUTPUT CONTROL FOR STRESS PERIOD   48   TIME STEP   11

 INTERPOLATION FOR HEAD OBS#  649, ID 3055-48-335  CHANGED BECAUSE AT LEAST ONE
 NEIGHBORING CELL REQUIRED FOR INTERPOLATION IS DRY OR INACTIVE (OBS2BAS7SE)

 INTERPOLATION FOR HEAD OBS#  773, ID 3008-48-336  CHANGED BECAUSE AT LEAST ONE
 NEIGHBORING CELL REQUIRED FOR INTERPOLATION IS DRY OR INACTIVE (OBS2BAS7SE)

 INTERPOLATION FOR HEAD OBS# 1655, ID 2303-48-349  CHANGED BECAUSE AT LEAST ONE
 NEIGHBORING CELL REQUIRED FOR INTERPOLATION IS DRY OR INACTIVE (OBS2BAS7SE)

 INTERPOLATION FOR HEAD OBS# 2181, ID 2355-48-362  CHANGED BECAUSE AT LEAST ONE
 NEIGHBORING CELL REQUIRED FOR INTERPOLATION IS DRY OR INACTIVE (OBS2BAS7SE)

 INTERPOLATION FOR HEAD OBS# 3193, ID 2443-48-336  CHANGED BECAUSE AT LEAST ONE
 NEIGHBORING CELL REQUIRED FOR INTERPOLATION IS DRY OR INACTIVE (OBS2BAS7SE)

 INTERPOLATION FOR HEAD OBS# 3695, ID 1479-48-364  CHANGED BECAUSE AT LEAST ONE
 NEIGHBORING CELL REQUIRED FOR INTERPOLATION IS DRY OR INACTIVE (OBS2BAS7SE)

 INTERPOLATION FOR HEAD OBS# 3709, ID 1471-48-364  CHANGED BECAUSE AT LEAST ONE
 NEIGHBORING CELL REQUIRED FOR INTERPOLATION IS DRY OR INACTIVE (OBS2BAS7SE)

 INTERPOLATION FOR HEAD OBS# 3752, ID 1427-48-364  CHANGED BECAUSE AT LEAST ONE
 NEIGHBORING CELL REQUIRED FOR INTERPOLATION IS DRY OR INACTIVE (OBS2BAS7SE)

 INTERPOLATION FOR HEAD OBS# 3769, ID 1405-48-364  CHANGED BECAUSE AT LEAST ONE
 NEIGHBORING CELL REQUIRED FOR INTERPOLATION IS DRY OR INACTIVE (OBS2BAS7SE)

 INTERPOLATION FOR HEAD OBS# 5396, ID 1705-48-335  CHANGED BECAUSE AT LEAST ONE
 NEIGHBORING CELL REQUIRED FOR INTERPOLATION IS DRY OR INACTIVE (OBS2BAS7SE)

 INTERPOLATION FOR HEAD OBS# 5400, ID 1530-48-335  CHANGED BECAUSE AT LEAST ONE
 NEIGHBORING CELL REQUIRED FOR INTERPOLATION IS DRY OR INACTIVE (OBS2BAS7SE)

 INTERPOLATION FOR HEAD OBS# 5426, ID 846-48-348   CHANGED BECAUSE AT LEAST ONE
 NEIGHBORING CELL REQUIRED FOR INTERPOLATION IS DRY OR INACTIVE (OBS2BAS7SE)

 INTERPOLATION FOR HEAD OBS# 6239, ID 1164-48-336  CHANGED BECAUSE AT LEAST ONE
 NEIGHBORING CELL REQUIRED FOR INTERPOLATION IS DRY OR INACTIVE (OBS2BAS7SE)

 INTERPOLATION FOR HEAD OBS# 6247, ID 1084-48-338  CHANGED BECAUSE AT LEAST ONE
 NEIGHBORING CELL REQUIRED FOR INTERPOLATION IS DRY OR INACTIVE (OBS2BAS7SE)

 INTERPOLATION FOR HEAD OBS# 6994, ID 683-48-342   CHANGED BECAUSE AT LEAST ONE
 NEIGHBORING CELL REQUIRED FOR INTERPOLATION IS DRY OR INACTIVE (OBS2BAS7SE)

 INTERPOLATION FOR HEAD OBS# 7373, ID 451-48-336   CHANGED BECAUSE AT LEAST ONE
 NEIGHBORING CELL REQUIRED FOR INTERPOLATION IS DRY OR INACTIVE (OBS2BAS7SE)

 INTERPOLATION FOR HEAD OBS# 7379, ID 397-48-336   CHANGED BECAUSE AT LEAST ONE
 NEIGHBORING CELL REQUIRED FOR INTERPOLATION IS DRY OR INACTIVE (OBS2BAS7SE)

 INTERPOLATION FOR HEAD OBS# 7526, ID 269-48-337   CHANGED BECAUSE AT LEAST ONE
 NEIGHBORING CELL REQUIRED FOR INTERPOLATION IS DRY OR INACTIVE (OBS2BAS7SE)

 INTERPOLATION FOR HEAD OBS# 7556, ID 230-48-337   CHANGED BECAUSE AT LEAST ONE
 NEIGHBORING CELL REQUIRED FOR INTERPOLATION IS DRY OR INACTIVE (OBS2BAS7SE)

 INTERPOLATION FOR HEAD OBS# 7775, ID 178-48-336   CHANGED BECAUSE AT LEAST ONE
 NEIGHBORING CELL REQUIRED FOR INTERPOLATION IS DRY OR INACTIVE (OBS2BAS7SE)
 
 SOLVING FOR HEAD 
                                                   Max.-Head-Change                        Max.-Flux-Residual
  Residual-Control   Outer-Iter.   Inner-Iter.     Column Row Layer    Max.-Head-Change    Column Row Layer    Max.-Flux-Residual            L2-New               L2-Old           Solver-Max-Delh
          0                 1          10            76   57     1      -0.2692548886E+01      90   52    1      -0.4763129330E+05      0.3899039530E+06      0.2205151599E+01     -0.2692548886E+01
          0                 2           9            76   57     1       0.2098558086E+00      80   59    2       0.5416868777E+04      0.3936455995E+05      0.3899039530E+06      0.2098558086E+00
          0                 3           5            76   57     1       0.2709037599E-02      76   57    1       0.5917881820E+01      0.2266790840E+02      0.3936455995E+05      0.2709037599E-02

    ------------------------------------------------
       NWT REQUIRED            3 OUTER ITERATIONS 
       AND A TOTAL OF         24 INNER ITERATIONS.
    ------------------------------------------------

 OUTPUT CONTROL FOR STRESS PERIOD   48   TIME STEP   12
    SAVE BUDGET
 UBDSV1 SAVING "         STORAGE" ON UNIT  39 AT TIME STEP 12, STRESS PERIOD  48
 UBDSV2 SAVING "   CONSTANT HEAD" ON UNIT  39 AT TIME STEP 12, STRESS PERIOD  48
 UBDSV1 SAVING "FLOW RIGHT FACE " ON UNIT  39 AT TIME STEP 12, STRESS PERIOD  48
 UBDSV1 SAVING "FLOW FRONT FACE " ON UNIT  39 AT TIME STEP 12, STRESS PERIOD  48
 UBDSV1 SAVING "FLOW LOWER FACE " ON UNIT  39 AT TIME STEP 12, STRESS PERIOD  48
 UBDSV4 SAVING "           WELLS" ON UNIT  39 AT TIME STEP 12, STRESS PERIOD  48
 UBDSV3 SAVING "              ET" ON UNIT  39 AT TIME STEP 12, STRESS PERIOD  48
 UBDSV3 SAVING "        RECHARGE" ON UNIT  39 AT TIME STEP 12, STRESS PERIOD  48
1
  VOLUMETRIC BUDGET FOR ENTIRE MODEL AT END OF TIME STEP   12, STRESS PERIOD  48
  ------------------------------------------------------------------------------

     CUMULATIVE VOLUMES      L**3       RATES FOR THIS TIME STEP      L**3/T
     ------------------                 ------------------------

           IN:                                      IN:
           ---                                      ---
             STORAGE     =309313404928.0000               STORAGE     =    16279682.0000
       CONSTANT HEAD     = 28946202624.0000         CONSTANT HEAD     =     2352050.5000
               WELLS     = 21487470592.0000                 WELLS     =     1225642.0000
                  ET     =           0.0000                    ET     =           0.0000
            RECHARGE     =351775981568.0000              RECHARGE     =    19824122.0000

                TOTAL IN =711523041280.0000                  TOTAL IN =    39681496.0000

          OUT:                                     OUT:
          ----                                     ----
             STORAGE     = 61260988416.0000               STORAGE     =     2645882.7500
       CONSTANT HEAD     = 58452156416.0000         CONSTANT HEAD     =     2382668.2500
               WELLS     =574105321472.0000                 WELLS     =    33321022.0000
                  ET     = 17703696384.0000                    ET     =     1331927.2500
            RECHARGE     =           0.0000              RECHARGE     =           0.0000

               TOTAL OUT =711522189312.0000                 TOTAL OUT =    39681500.0000

                IN - OUT =      851968.0000                  IN - OUT =          -4.0000

     PERCENT DISCREPANCY =           0.00         PERCENT DISCREPANCY =          -0.00






         TIME SUMMARY AT END OF TIME STEP   12 IN STRESS PERIOD   48
                    SECONDS     MINUTES      HOURS       DAYS        YEARS
                    -----------------------------------------------------------
   TIME STEP LENGTH 2.62800E+06  43800.      730.00      30.417     8.32763E-02
 STRESS PERIOD TIME 3.15360E+07 5.25600E+05  8760.0      365.00     0.99932    
         TOTAL TIME 1.51477E+09 2.52461E+07 4.20769E+05  17532.      48.000    
1
1
                            STRESS PERIOD NO.   49, LENGTH =   366.0000    
                            -----------------------------------------------

                              NUMBER OF TIME STEPS =    12

                               MULTIPLIER FOR DELT =     1.000

                            INITIAL TIME STEP SIZE =   30.50000    

   1883 WELLS

 REUSING SURF FROM LAST STRESS PERIOD

 REUSING EVTR FROM LAST STRESS PERIOD

 REUSING EXDP FROM LAST STRESS PERIOD



                           RECHARGE
 READING ON UNIT   16 WITH FORMAT: (15F5.0)            


     63 TIME-VARIANT SPECIFIED-HEAD CELLS
 
 SOLVING FOR HEAD 
                                                   Max.-Head-Change                        Max.-Flux-Residual
  Residual-Control   Outer-Iter.   Inner-Iter.     Column Row Layer    Max.-Head-Change    Column Row Layer    Max.-Flux-Residual            L2-New               L2-Old           Solver-Max-Delh
          0                 1          11            87   54     3      -0.8726538902E+02      57  113    1      -0.2259863530E+06      0.8481107116E+06      0.2266790840E+02     -0.8726538902E+02
          0                 2           9            87   54     3       0.9651207683E+01      72   15    2       0.7172311803E+05      0.1330093093E+06      0.8481107116E+06      0.9651207683E+01
          0                 3           6            73   11     3       0.1819954465E+00      73   11    3       0.6994079118E+03      0.7685497382E+03      0.1330093093E+06      0.1819954465E+00
          0                 4           4            84   53     3      -0.2457944623E-02      30   32    1       0.8261921369E+01      0.1289792757E+02      0.7685497382E+03     -0.2457944623E-02

    ------------------------------------------------
       NWT REQUIRED            4 OUTER ITERATIONS 
       AND A TOTAL OF         30 INNER ITERATIONS.
    ------------------------------------------------

 NO OUTPUT CONTROL FOR STRESS PERIOD   49   TIME STEP    1
 
 SOLVING FOR HEAD 
                                                   Max.-Head-Change                        Max.-Flux-Residual
  Residual-Control   Outer-Iter.   Inner-Iter.     Column Row Layer    Max.-Head-Change    Column Row Layer    Max.-Flux-Residual            L2-New               L2-Old           Solver-Max-Delh
          0                 1          10            83   52     3      -0.1759896482E+02      57  113    1      -0.1148054070E+06      0.5933843456E+06      0.1289792757E+02     -0.1759896482E+02
          0                 2           9            83   52     3       0.1630470643E+01      73   11    3       0.1455384438E+05      0.6166078204E+05      0.5933843456E+06      0.1630470643E+01
          0                 3           5            80   60     1       0.3062155360E-01      80   60    1       0.7413209425E+02      0.1121116140E+03      0.6166078204E+05      0.3062155360E-01
          0                 4           2            80   60     1       0.3165158110E-03      80   60    1       0.7647722261E+00      0.1296269859E+01      0.1121116140E+03      0.3165158110E-03

    ------------------------------------------------
       NWT REQUIRED            4 OUTER ITERATIONS 
       AND A TOTAL OF         26 INNER ITERATIONS.
    ------------------------------------------------

 NO OUTPUT CONTROL FOR STRESS PERIOD   49   TIME STEP    2
 
 SOLVING FOR HEAD 
                                                   Max.-Head-Change                        Max.-Flux-Residual
  Residual-Control   Outer-Iter.   Inner-Iter.     Column Row Layer    Max.-Head-Change    Column Row Layer    Max.-Flux-Residual            L2-New               L2-Old           Solver-Max-Delh
          0                 1          10            84   53     3      -0.6046046106E+01      91   52    1      -0.8351563016E+05      0.5418742534E+06      0.1296269859E+01     -0.6046046106E+01
          0                 2           9            75   58     1      -0.6402292068E+00      60   61    2       0.9038272507E+04      0.5587425862E+05      0.5418742534E+06     -0.6402292068E+00
          0                 3           6            59   78     1      -0.8110374887E-01      60   61    1      -0.4135408016E+04      0.5849256896E+04      0.5587425862E+05     -0.8110374887E-01
          0                 4           4            59   78     1      -0.7314535949E-02      60   61    1      -0.3723991414E+03      0.5247603657E+03      0.5849256896E+04     -0.7314535949E-02

    ------------------------------------------------
       NWT REQUIRED            4 OUTER ITERATIONS 
       AND A TOTAL OF         29 INNER ITERATIONS.
    ------------------------------------------------

 NO OUTPUT CONTROL FOR STRESS PERIOD   49   TIME STEP    3
 
 SOLVING FOR HEAD 
                                                   Max.-Head-Change                        Max.-Flux-Residual
  Residual-Control   Outer-Iter.   Inner-Iter.     Column Row Layer    Max.-Head-Change    Column Row Layer    Max.-Flux-Residual            L2-New               L2-Old           Solver-Max-Delh
          0                 1          10            83   53     3      -0.3022370218E+01      91   52    1      -0.8086662080E+05      0.5179790602E+06      0.5247603657E+03     -0.3022370218E+01
          0                 2           9            56   40     1      -0.4148291647E+00      90   52    1       0.1192514122E+05      0.5509995494E+05      0.5179790602E+06     -0.4148291647E+00
          0                 3           5            56   40     1       0.3660971975E-01      60   61    1       0.1096628089E+04      0.1433493984E+04      0.5509995494E+05      0.3660971975E-01
          0                 4           3            85   85     2      -0.1410868147E-03      56   40    1       0.1271670040E+01      0.2066315513E+01      0.1433493984E+04     -0.1410868147E-03

    ------------------------------------------------
       NWT REQUIRED            4 OUTER ITERATIONS 
       AND A TOTAL OF         27 INNER ITERATIONS.
    ------------------------------------------------

 NO OUTPUT CONTROL FOR STRESS PERIOD   49   TIME STEP    4
 
 SOLVING FOR HEAD 
                                                   Max.-Head-Change                        Max.-Flux-Residual
  Residual-Control   Outer-Iter.   Inner-Iter.     Column Row Layer    Max.-Head-Change    Column Row Layer    Max.-Flux-Residual            L2-New               L2-Old           Solver-Max-Delh
          0                 1          10            91   52     1      -0.2289925504E+01      91   52    1      -0.7847039055E+05      0.5023535888E+06      0.2066315513E+01     -0.2289925504E+01
          0                 2           9            83   52     2       0.5256027294E+00      83   52    2       0.2362072833E+05      0.5641106425E+05      0.5023535888E+06      0.5256027294E+00
          0                 3           5            59   32     2       0.6837997809E-02      59   32    2       0.2145679097E+03      0.2580251581E+03      0.5641106425E+05      0.6837997809E-02

    ------------------------------------------------
       NWT REQUIRED            3 OUTER ITERATIONS 
       AND A TOTAL OF         24 INNER ITERATIONS.
    ------------------------------------------------

 NO OUTPUT CONTROL FOR STRESS PERIOD   49   TIME STEP    5
 
 SOLVING FOR HEAD 
                                                   Max.-Head-Change                        Max.-Flux-Residual
  Residual-Control   Outer-Iter.   Inner-Iter.     Column Row Layer    Max.-Head-Change    Column Row Layer    Max.-Flux-Residual            L2-New               L2-Old           Solver-Max-Delh
          0                 1          10            91   52     1      -0.2225958105E+01      91   52    1      -0.7620196432E+05      0.4895849579E+06      0.2580251581E+03     -0.2225958105E+01
          0                 2           9            22   44     2      -0.5183317320E+00      59   32    2       0.1129209550E+05      0.5031676109E+05      0.4895849579E+06     -0.5183317320E+00
          0                 3           5            22   44     2       0.4161745411E-01      53  116    1      -0.1250273860E+03      0.1686340662E+03      0.5031676109E+05      0.4161745411E-01
          0                 4           3            22   44     2       0.4393706419E-03      22   44    2       0.7522189915E+00      0.8964935763E+00      0.1686340662E+03      0.4393706419E-03

    ------------------------------------------------
       NWT REQUIRED            4 OUTER ITERATIONS 
       AND A TOTAL OF         27 INNER ITERATIONS.
    ------------------------------------------------

 NO OUTPUT CONTROL FOR STRESS PERIOD   49   TIME STEP    6
 
 SOLVING FOR HEAD 
                                                   Max.-Head-Change                        Max.-Flux-Residual
  Residual-Control   Outer-Iter.   Inner-Iter.     Column Row Layer    Max.-Head-Change    Column Row Layer    Max.-Flux-Residual            L2-New               L2-Old           Solver-Max-Delh
          0                 1          10            91   52     1      -0.2163992886E+01      91   52    1      -0.7404533312E+05      0.4791159708E+06      0.8964935763E+00     -0.2163992886E+01
          0                 2           9            72   15     1      -0.3775856302E+00      91   52    1       0.7375231155E+04      0.4811498435E+05      0.4791159708E+06     -0.3775856302E+00
          0                 3           5            72   15     1       0.3256032875E-01      72   15    1       0.2223675460E+03      0.3193431601E+03      0.4811498435E+05      0.3256032875E-01
          0                 4           3            39   33     1       0.2402957280E-03      59   63    1      -0.1420183480E+01      0.2304119323E+01      0.3193431601E+03      0.2402957280E-03

    ------------------------------------------------
       NWT REQUIRED            4 OUTER ITERATIONS 
       AND A TOTAL OF         27 INNER ITERATIONS.
    ------------------------------------------------

 NO OUTPUT CONTROL FOR STRESS PERIOD   49   TIME STEP    7
 
 SOLVING FOR HEAD 
                                                   Max.-Head-Change                        Max.-Flux-Residual
  Residual-Control   Outer-Iter.   Inner-Iter.     Column Row Layer    Max.-Head-Change    Column Row Layer    Max.-Flux-Residual            L2-New               L2-Old           Solver-Max-Delh
          0                 1          10            72   15     1      -0.3240439236E+01      91   52    1      -0.7198278956E+05      0.4706155733E+06      0.2304119323E+01     -0.3240439236E+01
          0                 2           9            86   57     2      -0.2068803303E+01      91   52    1       0.7170411017E+04      0.4720968851E+05      0.4706155733E+06     -0.2068803303E+01
          0                 3           5            86   57     2       0.1773754138E-01      86   57    3      -0.4490848362E+02      0.5904253363E+02      0.4720968851E+05      0.1773754138E-01
          0                 4           2            86   57     2       0.1460195472E-02      86   57    3       0.3931273308E+01      0.3976062240E+01      0.5904253363E+02      0.1460195472E-02

    ------------------------------------------------
       NWT REQUIRED            4 OUTER ITERATIONS 
       AND A TOTAL OF         26 INNER ITERATIONS.
    ------------------------------------------------

 NO OUTPUT CONTROL FOR STRESS PERIOD   49   TIME STEP    8
 
 SOLVING FOR HEAD 
                                                   Max.-Head-Change                        Max.-Flux-Residual
  Residual-Control   Outer-Iter.   Inner-Iter.     Column Row Layer    Max.-Head-Change    Column Row Layer    Max.-Flux-Residual            L2-New               L2-Old           Solver-Max-Delh
          0                 1          10            86   57     2      -0.7702122644E+01      91   52    1      -0.7001452233E+05      0.4639449304E+06      0.3976062240E+01     -0.7702122644E+01
          0                 2           9            76   62     1      -0.8821723935E+00      56   82    3       0.1346675253E+05      0.4897175615E+05      0.4639449304E+06     -0.8821723935E+00
          0                 3           6            76   62     1       0.7290851816E-01      46   31    1       0.3246077619E+03      0.4127804304E+03      0.4897175615E+05      0.7290851816E-01
          0                 4           3            76   62     1       0.6072543804E-03      76   62    1       0.1703322074E+01      0.1797124685E+01      0.4127804304E+03      0.6072543804E-03

    ------------------------------------------------
       NWT REQUIRED            4 OUTER ITERATIONS 
       AND A TOTAL OF         28 INNER ITERATIONS.
    ------------------------------------------------

 NO OUTPUT CONTROL FOR STRESS PERIOD   49   TIME STEP    9
 
 SOLVING FOR HEAD 
                                                   Max.-Head-Change                        Max.-Flux-Residual
  Residual-Control   Outer-Iter.   Inner-Iter.     Column Row Layer    Max.-Head-Change    Column Row Layer    Max.-Flux-Residual            L2-New               L2-Old           Solver-Max-Delh
          0                 1          10            91   52     1      -0.1994804587E+01      91   52    1      -0.6813862088E+05      0.4576559392E+06      0.1797124685E+01     -0.1994804587E+01
          0                 2           9            79   52     1      -0.3490450147E+01      79   52    1      -0.1574443438E+05      0.4911061244E+05      0.4576559392E+06     -0.3490450147E+01
          0                 3           5            79   52     1       0.2859986100E+00      79   52    1       0.1420814099E+04      0.1660915021E+04      0.4911061244E+05      0.2859986100E+00
          0                 4           3            79   52     1       0.2485508087E-02      79   52    1       0.1209198746E+02      0.1320897412E+02      0.1660915021E+04      0.2485508087E-02

    ------------------------------------------------
       NWT REQUIRED            4 OUTER ITERATIONS 
       AND A TOTAL OF         27 INNER ITERATIONS.
    ------------------------------------------------

 NO OUTPUT CONTROL FOR STRESS PERIOD   49   TIME STEP   10
 
 SOLVING FOR HEAD 
                                                   Max.-Head-Change                        Max.-Flux-Residual
  Residual-Control   Outer-Iter.   Inner-Iter.     Column Row Layer    Max.-Head-Change    Column Row Layer    Max.-Flux-Residual            L2-New               L2-Old           Solver-Max-Delh
          0                 1          10            82   48     1      -0.2460018388E+01      91   52    1      -0.6635124721E+05      0.4523836640E+06      0.1320897412E+02     -0.2460018388E+01
          0                 2           9            70   99     1      -0.5179659085E+00      60   62    2       0.1501173265E+05      0.4854425761E+05      0.4523836640E+06     -0.5179659085E+00
          0                 3           5            61   60     1      -0.5894820802E-01      61   60    1      -0.3936164959E+04      0.3939681192E+04      0.4854425761E+05     -0.5894820802E-01
          0                 4           4            61   60     1      -0.5311943843E-02      61   60    1      -0.3545749002E+03      0.3546130931E+03      0.3939681192E+04     -0.5311943843E-02

    ------------------------------------------------
       NWT REQUIRED            4 OUTER ITERATIONS 
       AND A TOTAL OF         28 INNER ITERATIONS.
    ------------------------------------------------

 NO OUTPUT CONTROL FOR STRESS PERIOD   49   TIME STEP   11
 
 SOLVING FOR HEAD 
                                                   Max.-Head-Change                        Max.-Flux-Residual
  Residual-Control   Outer-Iter.   Inner-Iter.     Column Row Layer    Max.-Head-Change    Column Row Layer    Max.-Flux-Residual            L2-New               L2-Old           Solver-Max-Delh
          0                 1          10            77   54     1      -0.2229949496E+01      91   52    1      -0.6467181038E+05      0.4475473317E+06      0.3546130931E+03     -0.2229949496E+01
          0                 2           9            56   84     3       0.5132506643E+00      56   84    3       0.1447323541E+05      0.4819815231E+05      0.4475473317E+06      0.5132506643E+00
          0                 3           5            73   54     1       0.2152875520E-01      61   60    1       0.6036386762E+03      0.7375628634E+03      0.4819815231E+05      0.2152875520E-01
          0                 4           2            85   85     2      -0.1479064639E-03      59   50    1       0.5555892661E+00      0.8913202477E+00      0.7375628634E+03     -0.1479064639E-03

    ------------------------------------------------
       NWT REQUIRED            4 OUTER ITERATIONS 
       AND A TOTAL OF         26 INNER ITERATIONS.
    ------------------------------------------------

 OUTPUT CONTROL FOR STRESS PERIOD   49   TIME STEP   12
    SAVE BUDGET
    SAVE HEAD FOR LAYERS:   1  2  3
 UBDSV1 SAVING "         STORAGE" ON UNIT  39 AT TIME STEP 12, STRESS PERIOD  49
 UBDSV2 SAVING "   CONSTANT HEAD" ON UNIT  39 AT TIME STEP 12, STRESS PERIOD  49
 UBDSV1 SAVING "FLOW RIGHT FACE " ON UNIT  39 AT TIME STEP 12, STRESS PERIOD  49
 UBDSV1 SAVING "FLOW FRONT FACE " ON UNIT  39 AT TIME STEP 12, STRESS PERIOD  49
 UBDSV1 SAVING "FLOW LOWER FACE " ON UNIT  39 AT TIME STEP 12, STRESS PERIOD  49
 UBDSV4 SAVING "           WELLS" ON UNIT  39 AT TIME STEP 12, STRESS PERIOD  49
 UBDSV3 SAVING "              ET" ON UNIT  39 AT TIME STEP 12, STRESS PERIOD  49
 UBDSV3 SAVING "        RECHARGE" ON UNIT  39 AT TIME STEP 12, STRESS PERIOD  49

 HEAD WILL BE SAVED ON UNIT   31 AT END OF TIME STEP   12, STRESS PERIOD   49
1
  VOLUMETRIC BUDGET FOR ENTIRE MODEL AT END OF TIME STEP   12, STRESS PERIOD  49
  ------------------------------------------------------------------------------

     CUMULATIVE VOLUMES      L**3       RATES FOR THIS TIME STEP      L**3/T
     ------------------                 ------------------------

           IN:                                      IN:
           ---                                      ---
             STORAGE     =315948302336.0000               STORAGE     =    17525774.0000
       CONSTANT HEAD     = 29773570048.0000         CONSTANT HEAD     =     2231903.0000
               WELLS     = 21936056320.0000                 WELLS     =     1225642.0000
                  ET     =           0.0000                    ET     =           0.0000
            RECHARGE     =358446891008.0000              RECHARGE     =    18226870.0000

                TOTAL IN =726104801280.0000                  TOTAL IN =    39210188.0000

          OUT:                                     OUT:
          ----                                     ----
             STORAGE     = 62071480320.0000               STORAGE     =     1761495.5000
       CONSTANT HEAD     = 59279642624.0000         CONSTANT HEAD     =     2199361.5000
               WELLS     =586634756096.0000                 WELLS     =    34232744.0000
                  ET     = 18118311936.0000                    ET     =     1016587.6250
            RECHARGE     =           0.0000              RECHARGE     =           0.0000

               TOTAL OUT =726104145920.0000                 TOTAL OUT =    39210188.0000

                IN - OUT =      655360.0000                  IN - OUT =           0.0000

     PERCENT DISCREPANCY =           0.00         PERCENT DISCREPANCY =           0.00






         TIME SUMMARY AT END OF TIME STEP   12 IN STRESS PERIOD   49
                    SECONDS     MINUTES      HOURS       DAYS        YEARS
                    -----------------------------------------------------------
   TIME STEP LENGTH 2.63520E+06  43920.      732.00      30.500     8.35044E-02
 STRESS PERIOD TIME 3.16224E+07 5.27040E+05  8784.0      366.00      1.0021    
         TOTAL TIME 1.54639E+09 2.57732E+07 4.29553E+05  17898.      49.002    
1
1
                            STRESS PERIOD NO.   50, LENGTH =   365.0000    
                            -----------------------------------------------

                              NUMBER OF TIME STEPS =    12

                               MULTIPLIER FOR DELT =     1.000

                            INITIAL TIME STEP SIZE =   30.41667    

   1850 WELLS

 REUSING SURF FROM LAST STRESS PERIOD

 REUSING EVTR FROM LAST STRESS PERIOD

 REUSING EXDP FROM LAST STRESS PERIOD



                           RECHARGE
 READING ON UNIT   16 WITH FORMAT: (15F5.0)            


     63 TIME-VARIANT SPECIFIED-HEAD CELLS
 
 SOLVING FOR HEAD 
                                                   Max.-Head-Change                        Max.-Flux-Residual
  Residual-Control   Outer-Iter.   Inner-Iter.     Column Row Layer    Max.-Head-Change    Column Row Layer    Max.-Flux-Residual            L2-New               L2-Old           Solver-Max-Delh
          0                 1          11            80   52     3      -0.2611441007E+02      56   99    3      -0.2428956454E+06      0.9141200019E+06      0.8913202477E+00     -0.2611441007E+02
          0                 2           9            78   52     2       0.2832224279E+01      78   52    2       0.8942481645E+05      0.1290741564E+06      0.9141200019E+06      0.2832224279E+01
          0                 3           6            74   56     1       0.6602403374E-01      84   50    2      -0.5678156295E+03      0.9792945976E+03      0.1290741564E+06      0.6602403374E-01
          0                 4           5            18   38     2      -0.3718531149E-03      18   38    3      -0.2569558022E+02      0.2871575335E+02      0.9792945976E+03     -0.3718531149E-03

    ------------------------------------------------
       NWT REQUIRED            4 OUTER ITERATIONS 
       AND A TOTAL OF         31 INNER ITERATIONS.
    ------------------------------------------------

 NO OUTPUT CONTROL FOR STRESS PERIOD   50   TIME STEP    1
 
 SOLVING FOR HEAD 
                                                   Max.-Head-Change                        Max.-Flux-Residual
  Residual-Control   Outer-Iter.   Inner-Iter.     Column Row Layer    Max.-Head-Change    Column Row Layer    Max.-Flux-Residual            L2-New               L2-Old           Solver-Max-Delh
          0                 1          10            56   99     3      -0.8829423407E+01      56   99    3      -0.2150050756E+06      0.6987039786E+06      0.2871575335E+02     -0.8829423407E+01
          0                 2           9            56   99     3       0.7897046849E+00      56   99    3       0.2133938395E+05      0.6981410085E+05      0.6987039786E+06      0.7897046849E+00
          0                 3           5            56   99     2       0.4232966207E-02      56   99    2       0.1836153770E+02      0.4361649465E+02      0.6981410085E+05      0.4232966207E-02

    ------------------------------------------------
       NWT REQUIRED            3 OUTER ITERATIONS 
       AND A TOTAL OF         24 INNER ITERATIONS.
    ------------------------------------------------

 NO OUTPUT CONTROL FOR STRESS PERIOD   50   TIME STEP    2
 
 SOLVING FOR HEAD 
                                                   Max.-Head-Change                        Max.-Flux-Residual
  Residual-Control   Outer-Iter.   Inner-Iter.     Column Row Layer    Max.-Head-Change    Column Row Layer    Max.-Flux-Residual            L2-New               L2-Old           Solver-Max-Delh
          0                 1          10            56   99     3      -0.7658134772E+01      56   99    3      -0.1845655216E+06      0.6467309993E+06      0.4361649465E+02     -0.7658134772E+01
          0                 2           9            65    7     2      -0.2120430104E+01      56   99    3       0.1831600587E+05      0.6523519137E+05      0.6467309993E+06     -0.2120430104E+01
          0                 3           5            65    7     2       0.9996340666E-01      90   51    1       0.1974999321E+03      0.2229905004E+03      0.6523519137E+05      0.9996340666E-01
          0                 4           2            65    7     2       0.4369284252E-02      65    7    2       0.2528804552E+01      0.2985954536E+01      0.2229905004E+03      0.4369284252E-02

    ------------------------------------------------
       NWT REQUIRED            4 OUTER ITERATIONS 
       AND A TOTAL OF         26 INNER ITERATIONS.
    ------------------------------------------------

 NO OUTPUT CONTROL FOR STRESS PERIOD   50   TIME STEP    3
 
 SOLVING FOR HEAD 
                                                   Max.-Head-Change                        Max.-Flux-Residual
  Residual-Control   Outer-Iter.   Inner-Iter.     Column Row Layer    Max.-Head-Change    Column Row Layer    Max.-Flux-Residual            L2-New               L2-Old           Solver-Max-Delh
          0                 1          10            56   99     3      -0.6702902331E+01      56   99    3      -0.1600723510E+06      0.6186212910E+06      0.2985954536E+01     -0.6702902331E+01
          0                 2           9            56   82     2      -0.1130275162E+01      56   99    3       0.1589087665E+05      0.6396432321E+05      0.6186212910E+06     -0.1130275162E+01
          0                 3           5            56   82     2       0.9561017501E-01      37   29    1       0.6346970874E+03      0.7729491882E+03      0.6396432321E+05      0.9561017501E-01
          0                 4           2            56   82     2       0.6037248516E-03      56   82    2       0.2224055389E+01      0.2392969643E+01      0.7729491882E+03      0.6037248516E-03

    ------------------------------------------------
       NWT REQUIRED            4 OUTER ITERATIONS 
       AND A TOTAL OF         26 INNER ITERATIONS.
    ------------------------------------------------

 NO OUTPUT CONTROL FOR STRESS PERIOD   50   TIME STEP    4
 
 SOLVING FOR HEAD 
                                                   Max.-Head-Change                        Max.-Flux-Residual
  Residual-Control   Outer-Iter.   Inner-Iter.     Column Row Layer    Max.-Head-Change    Column Row Layer    Max.-Flux-Residual            L2-New               L2-Old           Solver-Max-Delh
          0                 1          10            56   99     3      -0.5915310357E+01      56   99    3      -0.1400939481E+06      0.5988302207E+06      0.2392969643E+01     -0.5915310357E+01
          0                 2           9            81   52     1      -0.5209411566E+01      80   45    2       0.1906775299E+05      0.6549309716E+05      0.5988302207E+06     -0.5209411566E+01
          0                 3           5            81   52     1       0.4119738058E+00      80   59    1      -0.2732455654E+04      0.3189994820E+04      0.6549309716E+05      0.4119738058E+00
          0                 4           3            80   59     1      -0.8840349530E-02      80   59    1      -0.2462862997E+03      0.2469717393E+03      0.3189994820E+04     -0.8840349530E-02

    ------------------------------------------------
       NWT REQUIRED            4 OUTER ITERATIONS 
       AND A TOTAL OF         27 INNER ITERATIONS.
    ------------------------------------------------

 NO OUTPUT CONTROL FOR STRESS PERIOD   50   TIME STEP    5
 
 SOLVING FOR HEAD 
                                                   Max.-Head-Change                        Max.-Flux-Residual
  Residual-Control   Outer-Iter.   Inner-Iter.     Column Row Layer    Max.-Head-Change    Column Row Layer    Max.-Flux-Residual            L2-New               L2-Old           Solver-Max-Delh
          0                 1          10            56   99     3      -0.5260017490E+01      56   99    3      -0.1236208860E+06      0.5841954810E+06      0.2469717393E+03     -0.5260017490E+01
          0                 2           9            80   59     1      -0.3348290167E+01      56   99    3       0.1228859524E+05      0.5952696126E+05      0.5841954810E+06     -0.3348290167E+01
          0                 3           5            80   59     1       0.2608178553E+00      80   59    1       0.4730378327E+03      0.4948791102E+03      0.5952696126E+05      0.2608178553E+00
          0                 4           2            80   59     1       0.3408475822E-02      80   59    1       0.6124622746E+01      0.7459782529E+01      0.4948791102E+03      0.3408475822E-02

    ------------------------------------------------
       NWT REQUIRED            4 OUTER ITERATIONS 
       AND A TOTAL OF         26 INNER ITERATIONS.
    ------------------------------------------------

 NO OUTPUT CONTROL FOR STRESS PERIOD   50   TIME STEP    6
 
 SOLVING FOR HEAD 
                                                   Max.-Head-Change                        Max.-Flux-Residual
  Residual-Control   Outer-Iter.   Inner-Iter.     Column Row Layer    Max.-Head-Change    Column Row Layer    Max.-Flux-Residual            L2-New               L2-Old           Solver-Max-Delh
          0                 1          10            55   99     3      -0.5000555400E+01      56   99    3      -0.1099150635E+06      0.5724884211E+06      0.7459782529E+01     -0.5000555400E+01
          0                 2           9            56   84     2      -0.1421289127E+01      53   37    2       0.1590614299E+05      0.6103691598E+05      0.5724884211E+06     -0.1421289127E+01
          0                 3           5            56   84     2       0.1205879988E+00      64   28    1       0.6210126485E+03      0.8124199849E+03      0.6103691598E+05      0.1205879988E+00
          0                 4           2            56   84     2       0.7302534179E-03      56   84    2       0.2814834768E+01      0.3441232278E+01      0.8124199849E+03      0.7302534179E-03

    ------------------------------------------------
       NWT REQUIRED            4 OUTER ITERATIONS 
       AND A TOTAL OF         26 INNER ITERATIONS.
    ------------------------------------------------

 NO OUTPUT CONTROL FOR STRESS PERIOD   50   TIME STEP    7
 
 SOLVING FOR HEAD 
                                                   Max.-Head-Change                        Max.-Flux-Residual
  Residual-Control   Outer-Iter.   Inner-Iter.     Column Row Layer    Max.-Head-Change    Column Row Layer    Max.-Flux-Residual            L2-New               L2-Old           Solver-Max-Delh
          0                 1          10            55   99     3      -0.4897878468E+01      55   99    3      -0.1041469615E+06      0.5614781712E+06      0.3441232278E+01     -0.4897878468E+01
          0                 2           9            55   99     3       0.2046882799E+01      55   99    3       0.1027527008E+06      0.1172212824E+06      0.5614781712E+06      0.2046882799E+01
          0                 3           6            90   67     1       0.1362518664E+00      55   99    3      -0.4739466121E+04      0.4837047416E+04      0.1172212824E+06      0.1362518664E+00
          0                 4           2            55   99     3      -0.7183440373E-02      55   99    3      -0.4047057518E+03      0.4047470873E+03      0.4837047416E+04     -0.7183440373E-02

    ------------------------------------------------
       NWT REQUIRED            4 OUTER ITERATIONS 
       AND A TOTAL OF         27 INNER ITERATIONS.
    ------------------------------------------------

 NO OUTPUT CONTROL FOR STRESS PERIOD   50   TIME STEP    8
 
 SOLVING FOR HEAD 
                                                   Max.-Head-Change                        Max.-Flux-Residual
  Residual-Control   Outer-Iter.   Inner-Iter.     Column Row Layer    Max.-Head-Change    Column Row Layer    Max.-Flux-Residual            L2-New               L2-Old           Solver-Max-Delh
          0                 1          10            56   99     3      -0.3802732329E+01      56   99    3      -0.8835326308E+05      0.5467200164E+06      0.4047470873E+03     -0.3802732329E+01
          0                 2           9            90   76     2      -0.8986032114E+00      55   99    3       0.9605210226E+04      0.5509470939E+05      0.5467200164E+06     -0.8986032114E+00
          0                 3           5            90   76     2       0.4570247634E-01      55   99    3      -0.5142721196E+02      0.7314275440E+02      0.5509470939E+05      0.4570247634E-01
          0                 4           2            90   76     2       0.1831343978E-02      55   99    3      -0.4625278899E+01      0.4931638009E+01      0.7314275440E+02      0.1831343978E-02

    ------------------------------------------------
       NWT REQUIRED            4 OUTER ITERATIONS 
       AND A TOTAL OF         26 INNER ITERATIONS.
    ------------------------------------------------

 NO OUTPUT CONTROL FOR STRESS PERIOD   50   TIME STEP    9
 
 SOLVING FOR HEAD 
                                                   Max.-Head-Change                        Max.-Flux-Residual
  Residual-Control   Outer-Iter.   Inner-Iter.     Column Row Layer    Max.-Head-Change    Column Row Layer    Max.-Flux-Residual            L2-New               L2-Old           Solver-Max-Delh
          0                 1          10            56   99     3      -0.3431264994E+01      56   99    3      -0.7944408726E+05      0.5352349366E+06      0.4931638009E+01     -0.3431264994E+01
          0                 2           9            87   62     2      -0.7605960515E+00      56   99    3       0.7902756959E+04      0.5407553485E+05      0.5352349366E+06     -0.7605960515E+00
          0                 3           5            76   54     1       0.4655500341E-01      60   79    1      -0.1489558032E+04      0.1517260338E+04      0.5407553485E+05      0.4655500341E-01
          0                 4           3            60   79     1      -0.2409920855E-02      60   79    1      -0.1341469422E+03      0.1341803423E+03      0.1517260338E+04     -0.2409920855E-02

    ------------------------------------------------
       NWT REQUIRED            4 OUTER ITERATIONS 
       AND A TOTAL OF         27 INNER ITERATIONS.
    ------------------------------------------------

 NO OUTPUT CONTROL FOR STRESS PERIOD   50   TIME STEP   10
 
 SOLVING FOR HEAD 
                                                   Max.-Head-Change                        Max.-Flux-Residual
  Residual-Control   Outer-Iter.   Inner-Iter.     Column Row Layer    Max.-Head-Change    Column Row Layer    Max.-Flux-Residual            L2-New               L2-Old           Solver-Max-Delh
          0                 1          10            56   99     3      -0.3110302874E+01      56   99    3      -0.7169074089E+05      0.5276954006E+06      0.1341803423E+03     -0.3110302874E+01
          0                 2           9            82   52     1      -0.3204238279E+01      82   52    1      -0.9223120036E+04      0.5448342458E+05      0.5276954006E+06     -0.3204238279E+01
          0                 3           5            82   52     1       0.2482399779E+00      82   52    1       0.7831905087E+03      0.1138979651E+04      0.5448342458E+05      0.2482399779E+00
          0                 4           3            82   52     1       0.3466168546E-02      82   52    1       0.1069584375E+02      0.1179872938E+02      0.1138979651E+04      0.3466168546E-02

    ------------------------------------------------
       NWT REQUIRED            4 OUTER ITERATIONS 
       AND A TOTAL OF         27 INNER ITERATIONS.
    ------------------------------------------------

 NO OUTPUT CONTROL FOR STRESS PERIOD   50   TIME STEP   11
 
 SOLVING FOR HEAD 
                                                   Max.-Head-Change                        Max.-Flux-Residual
  Residual-Control   Outer-Iter.   Inner-Iter.     Column Row Layer    Max.-Head-Change    Column Row Layer    Max.-Flux-Residual            L2-New               L2-Old           Solver-Max-Delh
          0                 1          10            82   52     1      -0.1065197681E+02      81   46    1      -0.6764245587E+05      0.5219207924E+06      0.1179872938E+02     -0.1065197681E+02
          0                 2           9            82   52     1       0.7200384813E+00      77   46    2       0.8676353106E+04      0.5334534909E+05      0.5219207924E+06      0.7200384813E+00
          0                 3           5            53   37     1       0.3639157768E-01      53   37    1       0.4302103607E+03      0.5136980142E+03      0.5334534909E+05      0.3639157768E-01
          0                 4           3            85   85     2      -0.1689415405E-03      53   37    1       0.1434144475E+01      0.1583556687E+01      0.5136980142E+03     -0.1689415405E-03

    ------------------------------------------------
       NWT REQUIRED            4 OUTER ITERATIONS 
       AND A TOTAL OF         27 INNER ITERATIONS.
    ------------------------------------------------

 OUTPUT CONTROL FOR STRESS PERIOD   50   TIME STEP   12
    SAVE BUDGET
 UBDSV1 SAVING "         STORAGE" ON UNIT  39 AT TIME STEP 12, STRESS PERIOD  50
 UBDSV2 SAVING "   CONSTANT HEAD" ON UNIT  39 AT TIME STEP 12, STRESS PERIOD  50
 UBDSV1 SAVING "FLOW RIGHT FACE " ON UNIT  39 AT TIME STEP 12, STRESS PERIOD  50
 UBDSV1 SAVING "FLOW FRONT FACE " ON UNIT  39 AT TIME STEP 12, STRESS PERIOD  50
 UBDSV1 SAVING "FLOW LOWER FACE " ON UNIT  39 AT TIME STEP 12, STRESS PERIOD  50
 UBDSV4 SAVING "           WELLS" ON UNIT  39 AT TIME STEP 12, STRESS PERIOD  50
 UBDSV3 SAVING "              ET" ON UNIT  39 AT TIME STEP 12, STRESS PERIOD  50
 UBDSV3 SAVING "        RECHARGE" ON UNIT  39 AT TIME STEP 12, STRESS PERIOD  50
1
  VOLUMETRIC BUDGET FOR ENTIRE MODEL AT END OF TIME STEP   12, STRESS PERIOD  50
  ------------------------------------------------------------------------------

     CUMULATIVE VOLUMES      L**3       RATES FOR THIS TIME STEP      L**3/T
     ------------------                 ------------------------

           IN:                                      IN:
           ---                                      ---
             STORAGE     =324019191808.0000               STORAGE     =    21479908.0000
       CONSTANT HEAD     = 30624251904.0000         CONSTANT HEAD     =     2366177.5000
               WELLS     = 22383413248.0000                 WELLS     =     1225642.0000
                  ET     =           0.0000                    ET     =           0.0000
            RECHARGE     =364421414912.0000              RECHARGE     =    16368261.0000

                TOTAL IN =741448286208.0000                  TOTAL IN =    41439988.0000

          OUT:                                     OUT:
          ----                                     ----
             STORAGE     = 62776090624.0000               STORAGE     =     1631873.1250
       CONSTANT HEAD     = 60058386432.0000         CONSTANT HEAD     =     2096314.6250
               WELLS     =600214536192.0000                 WELLS     =    37137652.0000
                  ET     = 18398478336.0000                    ET     =      574151.4375
            RECHARGE     =           0.0000              RECHARGE     =           0.0000

               TOTAL OUT =741447434240.0000                 TOTAL OUT =    41439992.0000

                IN - OUT =      851968.0000                  IN - OUT =          -4.0000

     PERCENT DISCREPANCY =           0.00         PERCENT DISCREPANCY =          -0.00






         TIME SUMMARY AT END OF TIME STEP   12 IN STRESS PERIOD   50
                    SECONDS     MINUTES      HOURS       DAYS        YEARS
                    -----------------------------------------------------------
   TIME STEP LENGTH 2.62800E+06  43800.      730.00      30.417     8.32763E-02
 STRESS PERIOD TIME 3.15360E+07 5.25600E+05  8760.0      365.00     0.99932    
         TOTAL TIME 1.57793E+09 2.62988E+07 4.38313E+05  18263.      50.001    
1
1
                            STRESS PERIOD NO.   51, LENGTH =   365.0000    
                            -----------------------------------------------

                              NUMBER OF TIME STEPS =    12

                               MULTIPLIER FOR DELT =     1.000

                            INITIAL TIME STEP SIZE =   30.41667    

   1813 WELLS

 REUSING SURF FROM LAST STRESS PERIOD

 REUSING EVTR FROM LAST STRESS PERIOD

 REUSING EXDP FROM LAST STRESS PERIOD



                           RECHARGE
 READING ON UNIT   16 WITH FORMAT: (15F5.0)            


     63 TIME-VARIANT SPECIFIED-HEAD CELLS
 
 SOLVING FOR HEAD 
                                                   Max.-Head-Change                        Max.-Flux-Residual
  Residual-Control   Outer-Iter.   Inner-Iter.     Column Row Layer    Max.-Head-Change    Column Row Layer    Max.-Flux-Residual            L2-New               L2-Old           Solver-Max-Delh
          0                 1          11            83   52     3       0.6508487083E+02      37   29    2       0.1975833048E+06      0.9550471439E+06      0.1583556687E+01      0.6508487083E+02
          0                 2          10            92   77     2       0.7923962970E+01      37   29    1      -0.4288263698E+05      0.1054739404E+06      0.9550471439E+06      0.7923962970E+01
          0                 3           8            37   29     2       0.2392738670E+00      37   29    2       0.2274040736E+05      0.2274998670E+05      0.1054739404E+06      0.2392738670E+00
          0                 4           6            37   29     2       0.2151072166E-01      37   29    2       0.2044534967E+04      0.2047115023E+04      0.2274998670E+05      0.2151072166E-01
          0                 5           5            37   29     2       0.1934068555E-02      37   29    2       0.1837868284E+03      0.1840201150E+03      0.2047115023E+04      0.1934068555E-02

    ------------------------------------------------
       NWT REQUIRED            5 OUTER ITERATIONS 
       AND A TOTAL OF         40 INNER ITERATIONS.
    ------------------------------------------------

 NO OUTPUT CONTROL FOR STRESS PERIOD   51   TIME STEP    1
 
 SOLVING FOR HEAD 
                                                   Max.-Head-Change                        Max.-Flux-Residual
  Residual-Control   Outer-Iter.   Inner-Iter.     Column Row Layer    Max.-Head-Change    Column Row Layer    Max.-Flux-Residual            L2-New               L2-Old           Solver-Max-Delh
          0                 1          10            83   52     3       0.1498862743E+02      55  100    3      -0.1234323386E+06      0.6201503905E+06      0.1840201150E+03      0.1498862743E+02
          0                 2           9            83   52     3      -0.1362815473E+01      37   29    2       0.2386094229E+05      0.6628196654E+05      0.6201503905E+06     -0.1362815473E+01
          0                 3           6            37   29     2      -0.3993550306E-01      37   29    2      -0.2386094251E+04      0.2439221088E+04      0.6628196654E+05     -0.3993550306E-01
          0                 4           2            85   85     2      -0.1569096521E-03      79   72    2       0.2731230333E+00      0.6175669916E+00      0.2439221088E+04     -0.1569096521E-03

    ------------------------------------------------
       NWT REQUIRED            4 OUTER ITERATIONS 
       AND A TOTAL OF         27 INNER ITERATIONS.
    ------------------------------------------------

 NO OUTPUT CONTROL FOR STRESS PERIOD   51   TIME STEP    2
 
 SOLVING FOR HEAD 
                                                   Max.-Head-Change                        Max.-Flux-Residual
  Residual-Control   Outer-Iter.   Inner-Iter.     Column Row Layer    Max.-Head-Change    Column Row Layer    Max.-Flux-Residual            L2-New               L2-Old           Solver-Max-Delh
          0                 1          10            55  100     3      -0.5317087268E+01      55  100    3      -0.1167467879E+06      0.5191666328E+06      0.6175669916E+00     -0.5317087268E+01
          0                 2           9            55  100     3       0.4728794124E+00      55  100    3       0.1152853039E+05      0.5292649816E+05      0.5191666328E+06      0.4728794124E+00
          0                 3           5            79   55     1       0.2377587919E-02      58   45    1      -0.1119704000E+03      0.2375967501E+03      0.5292649816E+05      0.2377587919E-02

    ------------------------------------------------
       NWT REQUIRED            3 OUTER ITERATIONS 
       AND A TOTAL OF         24 INNER ITERATIONS.
    ------------------------------------------------

 NO OUTPUT CONTROL FOR STRESS PERIOD   51   TIME STEP    3
 
 SOLVING FOR HEAD 
                                                   Max.-Head-Change                        Max.-Flux-Residual
  Residual-Control   Outer-Iter.   Inner-Iter.     Column Row Layer    Max.-Head-Change    Column Row Layer    Max.-Flux-Residual            L2-New               L2-Old           Solver-Max-Delh
          0                 1          10            55  100     3      -0.5073624725E+01      55  100    3      -0.1109994404E+06      0.4671194032E+06      0.2375967501E+03     -0.5073624725E+01
          0                 2           9            55  100     3       0.9637855854E+00      55  100    3       0.4986026576E+05      0.6756942433E+05      0.4671194032E+06      0.9637855854E+00
          0                 3           5            55  100     2       0.7394300197E-01      55  100    3       0.3153906222E+04      0.3157911335E+04      0.6756942433E+05      0.7394300197E-01
          0                 4           2            55  100     2       0.8355689568E-03      55  100    3       0.2643003177E+02      0.2651010743E+02      0.3157911335E+04      0.8355689568E-03

    ------------------------------------------------
       NWT REQUIRED            4 OUTER ITERATIONS 
       AND A TOTAL OF         26 INNER ITERATIONS.
    ------------------------------------------------

 NO OUTPUT CONTROL FOR STRESS PERIOD   51   TIME STEP    4
 
 SOLVING FOR HEAD 
                                                   Max.-Head-Change                        Max.-Flux-Residual
  Residual-Control   Outer-Iter.   Inner-Iter.     Column Row Layer    Max.-Head-Change    Column Row Layer    Max.-Flux-Residual            L2-New               L2-Old           Solver-Max-Delh
          0                 1          10            56   99     3      -0.3469947272E+01      55  100    3      -0.9251854591E+05      0.4304016547E+06      0.2651010743E+02     -0.3469947272E+01
          0                 2           9            55  100     3       0.5063463571E+00      55  100    3       0.2711756608E+05      0.5089823511E+05      0.4304016547E+06      0.5063463571E+00
          0                 3           6            62   60     1      -0.5859293700E-01      62   60    1      -0.2537608628E+04      0.2601858374E+04      0.5089823511E+05     -0.5859293700E-01
          0                 4           4            62   60     1      -0.5277583760E-02      62   60    1      -0.2285008784E+03      0.2299920663E+03      0.2601858374E+04     -0.5277583760E-02

    ------------------------------------------------
       NWT REQUIRED            4 OUTER ITERATIONS 
       AND A TOTAL OF         29 INNER ITERATIONS.
    ------------------------------------------------

 NO OUTPUT CONTROL FOR STRESS PERIOD   51   TIME STEP    5
 
 SOLVING FOR HEAD 
                                                   Max.-Head-Change                        Max.-Flux-Residual
  Residual-Control   Outer-Iter.   Inner-Iter.     Column Row Layer    Max.-Head-Change    Column Row Layer    Max.-Flux-Residual            L2-New               L2-Old           Solver-Max-Delh
          0                 1          10            56   99     3      -0.3168876055E+01      56   99    3      -0.7247247220E+05      0.3991925667E+06      0.2299920663E+03     -0.3168876055E+01
          0                 2           9            56   99     3       0.2839554125E+00      61   84    1      -0.7286169628E+04      0.4143251362E+05      0.3991925667E+06      0.2839554125E+00
          0                 3           5            61   84     1       0.2501228745E-01      61   84    1       0.7175793329E+03      0.1074240819E+04      0.4143251362E+05      0.2501228745E-01
          0                 4           2            39   33     1       0.4212060905E-03      57  107    2      -0.1629641317E+01      0.3162412878E+01      0.1074240819E+04      0.4212060905E-03

    ------------------------------------------------
       NWT REQUIRED            4 OUTER ITERATIONS 
       AND A TOTAL OF         26 INNER ITERATIONS.
    ------------------------------------------------

 NO OUTPUT CONTROL FOR STRESS PERIOD   51   TIME STEP    6
 
 SOLVING FOR HEAD 
                                                   Max.-Head-Change                        Max.-Flux-Residual
  Residual-Control   Outer-Iter.   Inner-Iter.     Column Row Layer    Max.-Head-Change    Column Row Layer    Max.-Flux-Residual            L2-New               L2-Old           Solver-Max-Delh
          0                 1          10            56   99     3      -0.2907188153E+01      56   99    3      -0.6618417302E+05      0.3803007639E+06      0.3162412878E+01     -0.2907188153E+01
          0                 2           9            75   65     1      -0.2093975971E+01      25   20    1      -0.7347609015E+04      0.3926453660E+05      0.3803007639E+06     -0.2093975971E+01
          0                 3           5            75   65     1       0.1695554863E+00      75   65    1       0.4898167990E+03      0.5623856869E+03      0.3926453660E+05      0.1695554863E+00
          0                 4           3            75   65     1       0.1673641046E-02      75   65    1       0.4756178566E+01      0.4861755593E+01      0.5623856869E+03      0.1673641046E-02

    ------------------------------------------------
       NWT REQUIRED            4 OUTER ITERATIONS 
       AND A TOTAL OF         27 INNER ITERATIONS.
    ------------------------------------------------

 NO OUTPUT CONTROL FOR STRESS PERIOD   51   TIME STEP    7
 
 SOLVING FOR HEAD 
                                                   Max.-Head-Change                        Max.-Flux-Residual
  Residual-Control   Outer-Iter.   Inner-Iter.     Column Row Layer    Max.-Head-Change    Column Row Layer    Max.-Flux-Residual            L2-New               L2-Old           Solver-Max-Delh
          0                 1          10            56   99     3      -0.2677634386E+01      56   99    3      -0.6071222123E+05      0.3665196174E+06      0.4861755593E+01     -0.2677634386E+01
          0                 2           9            54   39     1      -0.2848737039E+00      56   99    3       0.6047670172E+04      0.3768586042E+05      0.3665196174E+06     -0.2848737039E+00
          0                 3           5            54   39     1       0.2507518167E-01      54   39    1       0.3658664049E+03      0.4041048345E+03      0.3768586042E+05      0.2507518167E-01
          0                 4           3            79   83     1      -0.3769120970E-03      79   83    1      -0.1134447758E+02      0.1139593773E+02      0.4041048345E+03     -0.3769120970E-03

    ------------------------------------------------
       NWT REQUIRED            4 OUTER ITERATIONS 
       AND A TOTAL OF         27 INNER ITERATIONS.
    ------------------------------------------------

 NO OUTPUT CONTROL FOR STRESS PERIOD   51   TIME STEP    8
 
 SOLVING FOR HEAD 
                                                   Max.-Head-Change                        Max.-Flux-Residual
  Residual-Control   Outer-Iter.   Inner-Iter.     Column Row Layer    Max.-Head-Change    Column Row Layer    Max.-Flux-Residual            L2-New               L2-Old           Solver-Max-Delh
          0                 1          10            56   99     3      -0.2475534229E+01      56   99    3      -0.5591901384E+05      0.3557110724E+06      0.1139593773E+02     -0.2475534229E+01
          0                 2           9            79   83     1      -0.5309230183E+00      25   20    2       0.6593177641E+04      0.3652731957E+05      0.3557110724E+06     -0.5309230183E+00
          0                 3           5            79   83     1       0.4543767460E-01      25   20    2      -0.5127988387E+03      0.5901419657E+03      0.3652731957E+05      0.4543767460E-01
          0                 4           2            79   83     1       0.2419297215E-03      79   83    1       0.1048016453E+01      0.1095072893E+01      0.5901419657E+03      0.2419297215E-03

    ------------------------------------------------
       NWT REQUIRED            4 OUTER ITERATIONS 
       AND A TOTAL OF         26 INNER ITERATIONS.
    ------------------------------------------------

 NO OUTPUT CONTROL FOR STRESS PERIOD   51   TIME STEP    9
 
 SOLVING FOR HEAD 
                                                   Max.-Head-Change                        Max.-Flux-Residual
  Residual-Control   Outer-Iter.   Inner-Iter.     Column Row Layer    Max.-Head-Change    Column Row Layer    Max.-Flux-Residual            L2-New               L2-Old           Solver-Max-Delh
          0                 1          10            56   99     3      -0.2296573044E+01      56   99    3      -0.5169648692E+05      0.3470106693E+06      0.1095072893E+01     -0.2296573044E+01
          0                 2           9            56   99     3       0.2059651010E+00      25   18    1      -0.9263053581E+04      0.3591908269E+05      0.3470106693E+06      0.2059651010E+00
          0                 3           5            79   55     1       0.1547813250E-02      56   99    2       0.4694195325E+01      0.2377534408E+02      0.3591908269E+05      0.1547813250E-02

    ------------------------------------------------
       NWT REQUIRED            3 OUTER ITERATIONS 
       AND A TOTAL OF         24 INNER ITERATIONS.
    ------------------------------------------------

 NO OUTPUT CONTROL FOR STRESS PERIOD   51   TIME STEP   10
 
 SOLVING FOR HEAD 
                                                   Max.-Head-Change                        Max.-Flux-Residual
  Residual-Control   Outer-Iter.   Inner-Iter.     Column Row Layer    Max.-Head-Change    Column Row Layer    Max.-Flux-Residual            L2-New               L2-Old           Solver-Max-Delh
          0                 1          10            56   99     3      -0.2137162020E+01      56   99    3      -0.4795693921E+05      0.3396991608E+06      0.2377534408E+02     -0.2137162020E+01
          0                 2           9            56   99     3       0.1916867918E+00      25   19    1      -0.9002860423E+04      0.3574943234E+05      0.3396991608E+06      0.1916867918E+00
          0                 3           5            34   28     2      -0.2817702302E-02      34   28    2      -0.2315654731E+03      0.2492164069E+03      0.3574943234E+05     -0.2817702302E-02

    ------------------------------------------------
       NWT REQUIRED            3 OUTER ITERATIONS 
       AND A TOTAL OF         24 INNER ITERATIONS.
    ------------------------------------------------

 NO OUTPUT CONTROL FOR STRESS PERIOD   51   TIME STEP   11
 
 SOLVING FOR HEAD 
                                                   Max.-Head-Change                        Max.-Flux-Residual
  Residual-Control   Outer-Iter.   Inner-Iter.     Column Row Layer    Max.-Head-Change    Column Row Layer    Max.-Flux-Residual            L2-New               L2-Old           Solver-Max-Delh
          0                 1          10            56   99     3      -0.1994555691E+01      56   99    3      -0.4462681971E+05      0.3334752243E+06      0.2492164069E+03     -0.1994555691E+01
          0                 2           9            78   53     1      -0.5197774530E+01      78   53    1      -0.6182279068E+04      0.3463736868E+05      0.3334752243E+06     -0.5197774530E+01
          0                 3           5            78   53     1       0.3042153781E+00      78   53    1       0.3993624852E+03      0.7000559750E+03      0.3463736868E+05      0.3042153781E+00
          0                 4           2            78   53     1       0.9888279660E-02      78   53    1       0.1282892494E+02      0.1324594249E+02      0.7000559750E+03      0.9888279660E-02

    ------------------------------------------------
       NWT REQUIRED            4 OUTER ITERATIONS 
       AND A TOTAL OF         26 INNER ITERATIONS.
    ------------------------------------------------

 OUTPUT CONTROL FOR STRESS PERIOD   51   TIME STEP   12
    SAVE BUDGET
 UBDSV1 SAVING "         STORAGE" ON UNIT  39 AT TIME STEP 12, STRESS PERIOD  51
 UBDSV2 SAVING "   CONSTANT HEAD" ON UNIT  39 AT TIME STEP 12, STRESS PERIOD  51
 UBDSV1 SAVING "FLOW RIGHT FACE " ON UNIT  39 AT TIME STEP 12, STRESS PERIOD  51
 UBDSV1 SAVING "FLOW FRONT FACE " ON UNIT  39 AT TIME STEP 12, STRESS PERIOD  51
 UBDSV1 SAVING "FLOW LOWER FACE " ON UNIT  39 AT TIME STEP 12, STRESS PERIOD  51
 UBDSV4 SAVING "           WELLS" ON UNIT  39 AT TIME STEP 12, STRESS PERIOD  51
 UBDSV3 SAVING "              ET" ON UNIT  39 AT TIME STEP 12, STRESS PERIOD  51
 UBDSV3 SAVING "        RECHARGE" ON UNIT  39 AT TIME STEP 12, STRESS PERIOD  51
1
  VOLUMETRIC BUDGET FOR ENTIRE MODEL AT END OF TIME STEP   12, STRESS PERIOD  51
  ------------------------------------------------------------------------------

     CUMULATIVE VOLUMES      L**3       RATES FOR THIS TIME STEP      L**3/T
     ------------------                 ------------------------

           IN:                                      IN:
           ---                                      ---
             STORAGE     =329372696576.0000               STORAGE     =    13630505.0000
       CONSTANT HEAD     = 31492739072.0000         CONSTANT HEAD     =     2405621.7500
               WELLS     = 22830770176.0000                 WELLS     =     1225642.0000
                  ET     =           0.0000                    ET     =           0.0000
            RECHARGE     =372482342912.0000              RECHARGE     =    22085266.0000

                TOTAL IN =756178550784.0000                  TOTAL IN =    39347032.0000

          OUT:                                     OUT:
          ----                                     ----
             STORAGE     = 64721838080.0000               STORAGE     =     4207269.5000
       CONSTANT HEAD     = 60943663104.0000         CONSTANT HEAD     =     2534216.7500
               WELLS     =611866902528.0000                 WELLS     =    31879588.0000
                  ET     = 18645596160.0000                    ET     =      725963.0000
            RECHARGE     =           0.0000              RECHARGE     =           0.0000

               TOTAL OUT =756177960960.0000                 TOTAL OUT =    39347036.0000

                IN - OUT =      589824.0000                  IN - OUT =          -4.0000

     PERCENT DISCREPANCY =           0.00         PERCENT DISCREPANCY =          -0.00






         TIME SUMMARY AT END OF TIME STEP   12 IN STRESS PERIOD   51
                    SECONDS     MINUTES      HOURS       DAYS        YEARS
                    -----------------------------------------------------------
   TIME STEP LENGTH 2.62800E+06  43800.      730.00      30.417     8.32763E-02
 STRESS PERIOD TIME 3.15360E+07 5.25600E+05  8760.0      365.00     0.99932    
         TOTAL TIME 1.60946E+09 2.68243E+07 4.47072E+05  18628.      51.001    
1
1
                            STRESS PERIOD NO.   52, LENGTH =   365.0000    
                            -----------------------------------------------

                              NUMBER OF TIME STEPS =    12

                               MULTIPLIER FOR DELT =     1.000

                            INITIAL TIME STEP SIZE =   30.41667    

   1805 WELLS

 REUSING SURF FROM LAST STRESS PERIOD

 REUSING EVTR FROM LAST STRESS PERIOD

 REUSING EXDP FROM LAST STRESS PERIOD



                           RECHARGE
 READING ON UNIT   16 WITH FORMAT: (15F5.0)            


     63 TIME-VARIANT SPECIFIED-HEAD CELLS
 
 SOLVING FOR HEAD 
                                                   Max.-Head-Change                        Max.-Flux-Residual
  Residual-Control   Outer-Iter.   Inner-Iter.     Column Row Layer    Max.-Head-Change    Column Row Layer    Max.-Flux-Residual            L2-New               L2-Old           Solver-Max-Delh
          0                 1          11            84   50     3       0.7430935703E+02      55  108    3      -0.1434093679E+06      0.8967305686E+06      0.1324594249E+02      0.7430935703E+02
          0                 2          10            92   77     2       0.1358277011E+02      29   31    2       0.2128716951E+05      0.9420499744E+05      0.8967305686E+06      0.1358277011E+02
          0                 3           6            92   77     2       0.6899375910E+00      24   22    1       0.2096870007E+04      0.2250953525E+04      0.9420499744E+05      0.6899375910E+00
          0                 4           3            92   77     2       0.3365838059E-01      92   77    2       0.1895048810E+02      0.2250068830E+02      0.2250953525E+04      0.3365838059E-01
          0                 5           2            92   77     2       0.1647341312E-02      92   77    2       0.9274473570E+00      0.1193207009E+01      0.2250068830E+02      0.1647341312E-02

    ------------------------------------------------
       NWT REQUIRED            5 OUTER ITERATIONS 
       AND A TOTAL OF         32 INNER ITERATIONS.
    ------------------------------------------------

 NO OUTPUT CONTROL FOR STRESS PERIOD   52   TIME STEP    1
 
 SOLVING FOR HEAD 
                                                   Max.-Head-Change                        Max.-Flux-Residual
  Residual-Control   Outer-Iter.   Inner-Iter.     Column Row Layer    Max.-Head-Change    Column Row Layer    Max.-Flux-Residual            L2-New               L2-Old           Solver-Max-Delh
          0                 1          10            84   50     3       0.1189233608E+02      81   46    1       0.1098266044E+06      0.6680195703E+06      0.1193207009E+01      0.1189233608E+02
          0                 2           9            19   38     2      -0.1164821230E+02      19   38    2      -0.2049658229E+05      0.7355675202E+05      0.6680195703E+06     -0.1164821230E+02
          0                 3           7            19   38     2       0.9288791967E+00      19   38    2       0.1795980692E+04      0.2623402686E+04      0.7355675202E+05      0.9288791967E+00
          0                 4           5            19   38     2       0.9476559630E-02      19   38    2       0.1831414381E+02      0.1992970292E+02      0.2623402686E+04      0.9476559630E-02

    ------------------------------------------------
       NWT REQUIRED            4 OUTER ITERATIONS 
       AND A TOTAL OF         31 INNER ITERATIONS.
    ------------------------------------------------

 NO OUTPUT CONTROL FOR STRESS PERIOD   52   TIME STEP    2
 
 SOLVING FOR HEAD 
                                                   Max.-Head-Change                        Max.-Flux-Residual
  Residual-Control   Outer-Iter.   Inner-Iter.     Column Row Layer    Max.-Head-Change    Column Row Layer    Max.-Flux-Residual            L2-New               L2-Old           Solver-Max-Delh
          0                 1          10            19   38     2      -0.1334696863E+02      81   46    1       0.1065088711E+06      0.5905238081E+06      0.1992970292E+02     -0.1334696863E+02
          0                 2           9            19   38     2       0.3776924457E+01      19   38    2       0.1224119814E+05      0.6164722004E+05      0.5905238081E+06      0.3776924457E+01
          0                 3           6            19   37     2       0.7473012991E-01      20   38    2       0.5140186423E+03      0.6856651915E+03      0.6164722004E+05      0.7473012991E-01
          0                 4           4            19   37     2       0.4132819014E-03      19   37    2       0.1382260451E+01      0.2076391087E+01      0.6856651915E+03      0.4132819014E-03

    ------------------------------------------------
       NWT REQUIRED            4 OUTER ITERATIONS 
       AND A TOTAL OF         29 INNER ITERATIONS.
    ------------------------------------------------

 NO OUTPUT CONTROL FOR STRESS PERIOD   52   TIME STEP    3
 
 SOLVING FOR HEAD 
                                                   Max.-Head-Change                        Max.-Flux-Residual
  Residual-Control   Outer-Iter.   Inner-Iter.     Column Row Layer    Max.-Head-Change    Column Row Layer    Max.-Flux-Residual            L2-New               L2-Old           Solver-Max-Delh
          0                 1          10            81   45     1       0.3394151474E+01      81   46    1       0.1032744721E+06      0.5436096209E+06      0.2076391087E+01      0.3394151474E+01
          0                 2           9            77   46     2       0.1050223358E+01      90   67    1      -0.2787276169E+05      0.6150789395E+05      0.5436096209E+06      0.1050223358E+01
          0                 3           5            77   46     2      -0.9548389305E-01      77   46    2      -0.6583845233E+03      0.7657466191E+03      0.6150789395E+05     -0.9548389305E-01
          0                 4           2            85   85     2      -0.1544163987E-03      89   67    1       0.1756796278E+00      0.3366953957E+00      0.7657466191E+03     -0.1544163987E-03

    ------------------------------------------------
       NWT REQUIRED            4 OUTER ITERATIONS 
       AND A TOTAL OF         26 INNER ITERATIONS.
    ------------------------------------------------

 NO OUTPUT CONTROL FOR STRESS PERIOD   52   TIME STEP    4
 
 SOLVING FOR HEAD 
                                                   Max.-Head-Change                        Max.-Flux-Residual
  Residual-Control   Outer-Iter.   Inner-Iter.     Column Row Layer    Max.-Head-Change    Column Row Layer    Max.-Flux-Residual            L2-New               L2-Old           Solver-Max-Delh
          0                 1          10            81   45     1       0.3258064884E+01      81   46    1       0.1000984652E+06      0.5116911528E+06      0.3366953957E+00      0.3258064884E+01
          0                 2           9            81   45     1      -0.2966868977E+00      81   46    1      -0.1003082767E+05      0.5175590339E+05      0.5116911528E+06     -0.2966868977E+00
          0                 3           5            73   15     2       0.1438837593E-01      35   30    2      -0.1795013823E+03      0.2525419535E+03      0.5175590339E+05      0.1438837593E-01
          0                 4           2            73   15     1       0.1718769067E-03      73   15    1       0.3733302783E+00      0.5763030052E+00      0.2525419535E+03      0.1718769067E-03

    ------------------------------------------------
       NWT REQUIRED            4 OUTER ITERATIONS 
       AND A TOTAL OF         26 INNER ITERATIONS.
    ------------------------------------------------

 NO OUTPUT CONTROL FOR STRESS PERIOD   52   TIME STEP    5
 
 SOLVING FOR HEAD 
                                                   Max.-Head-Change                        Max.-Flux-Residual
  Residual-Control   Outer-Iter.   Inner-Iter.     Column Row Layer    Max.-Head-Change    Column Row Layer    Max.-Flux-Residual            L2-New               L2-Old           Solver-Max-Delh
          0                 1          10            81   45     1       0.3129621342E+01      81   46    1       0.9691562011E+05      0.4876684141E+06      0.5763030052E+00      0.3129621342E+01
          0                 2           9            81   45     1      -0.2849673326E+00      76   48    1      -0.1028934025E+05      0.5056530510E+05      0.4876684141E+06     -0.2849673326E+00
          0                 3           6            61   54     1       0.1648510886E-01      61   54    1       0.5328823169E+03      0.5507095317E+03      0.5056530510E+05      0.1648510886E-01
          0                 4           2            85   85     2      -0.1557680383E-03      60   98    2      -0.9742090106E+00      0.1126128849E+01      0.5507095317E+03     -0.1557680383E-03

    ------------------------------------------------
       NWT REQUIRED            4 OUTER ITERATIONS 
       AND A TOTAL OF         27 INNER ITERATIONS.
    ------------------------------------------------

 NO OUTPUT CONTROL FOR STRESS PERIOD   52   TIME STEP    6
 
 SOLVING FOR HEAD 
                                                   Max.-Head-Change                        Max.-Flux-Residual
  Residual-Control   Outer-Iter.   Inner-Iter.     Column Row Layer    Max.-Head-Change    Column Row Layer    Max.-Flux-Residual            L2-New               L2-Old           Solver-Max-Delh
          0                 1          10            81   45     1       0.3006574781E+01      81   46    1       0.9380428499E+05      0.4679724851E+06      0.1126128849E+01      0.3006574781E+01
          0                 2           9            52   47     2      -0.3236599991E+00      58   31    2       0.1031031876E+05      0.4871889182E+05      0.4679724851E+06     -0.3236599991E+00
          0                 3           5            52   47     2       0.2817444763E-01      59   77    1      -0.1201706290E+04      0.1283938831E+04      0.4871889182E+05      0.2817444763E-01
          0                 4           3            59   77     1      -0.2344477878E-02      59   77    1      -0.1082202591E+03      0.1082454788E+03      0.1283938831E+04     -0.2344477878E-02

    ------------------------------------------------
       NWT REQUIRED            4 OUTER ITERATIONS 
       AND A TOTAL OF         27 INNER ITERATIONS.
    ------------------------------------------------

 NO OUTPUT CONTROL FOR STRESS PERIOD   52   TIME STEP    7
 
 SOLVING FOR HEAD 
                                                   Max.-Head-Change                        Max.-Flux-Residual
  Residual-Control   Outer-Iter.   Inner-Iter.     Column Row Layer    Max.-Head-Change    Column Row Layer    Max.-Flux-Residual            L2-New               L2-Old           Solver-Max-Delh
          0                 1          10            81   45     1       0.2888382102E+01      81   46    1       0.9076377071E+05      0.4508330520E+06      0.1082454788E+03      0.2888382102E+01
          0                 2           9            81   45     1      -0.2629609480E+00      81   46    1      -0.9093615523E+04      0.4576875403E+05      0.4508330520E+06     -0.2629609480E+00
          0                 3           5            79   58     2       0.2509749970E-01      79   58    2       0.2912468377E+03      0.3418886540E+03      0.4576875403E+05      0.2509749970E-01
          0                 4           2            85   85     2      -0.1567933650E-03      59   77    1       0.2053042799E+00      0.3294409074E+00      0.3418886540E+03     -0.1567933650E-03

    ------------------------------------------------
       NWT REQUIRED            4 OUTER ITERATIONS 
       AND A TOTAL OF         26 INNER ITERATIONS.
    ------------------------------------------------

 NO OUTPUT CONTROL FOR STRESS PERIOD   52   TIME STEP    8
 
 SOLVING FOR HEAD 
                                                   Max.-Head-Change                        Max.-Flux-Residual
  Residual-Control   Outer-Iter.   Inner-Iter.     Column Row Layer    Max.-Head-Change    Column Row Layer    Max.-Flux-Residual            L2-New               L2-Old           Solver-Max-Delh
          0                 1          10            81   45     1       0.2775374772E+01      81   46    1       0.8779005126E+05      0.4363189174E+06      0.3294409074E+00      0.2775374772E+01
          0                 2           9            79   58     2       0.2983271293E+00      79   58    2       0.1123090648E+05      0.4554824657E+05      0.4363189174E+06      0.2983271293E+00
          0                 3           6            42   31     1      -0.1403785081E-01      42   31    1      -0.1499301031E+04      0.1499894091E+04      0.4554824657E+05     -0.1403785081E-01
          0                 4           4            42   31     1      -0.1263856327E-02      42   31    1      -0.1349565282E+03      0.1349938054E+03      0.1499894091E+04     -0.1263856327E-02

    ------------------------------------------------
       NWT REQUIRED            4 OUTER ITERATIONS 
       AND A TOTAL OF         29 INNER ITERATIONS.
    ------------------------------------------------

 NO OUTPUT CONTROL FOR STRESS PERIOD   52   TIME STEP    9
 
 SOLVING FOR HEAD 
                                                   Max.-Head-Change                        Max.-Flux-Residual
  Residual-Control   Outer-Iter.   Inner-Iter.     Column Row Layer    Max.-Head-Change    Column Row Layer    Max.-Flux-Residual            L2-New               L2-Old           Solver-Max-Delh
          0                 1          10            81   45     1       0.2667214608E+01      81   46    1       0.8489316307E+05      0.4236760079E+06      0.1349938054E+03      0.2667214608E+01
          0                 2           9            81   45     1      -0.2427910640E+00      81   46    1      -0.8504362578E+04      0.4311628931E+05      0.4236760079E+06     -0.2427910640E+00
          0                 3           6            49   43     2       0.1869834661E-01      49   41    1      -0.1119734280E+04      0.1427704136E+04      0.4311628931E+05      0.1869834661E-01
          0                 4           4            49   41     1      -0.1416642282E-02      49   41    1      -0.1007951003E+03      0.1119098744E+03      0.1427704136E+04     -0.1416642282E-02

    ------------------------------------------------
       NWT REQUIRED            4 OUTER ITERATIONS 
       AND A TOTAL OF         29 INNER ITERATIONS.
    ------------------------------------------------

 NO OUTPUT CONTROL FOR STRESS PERIOD   52   TIME STEP   10
 
 SOLVING FOR HEAD 
                                                   Max.-Head-Change                        Max.-Flux-Residual
  Residual-Control   Outer-Iter.   Inner-Iter.     Column Row Layer    Max.-Head-Change    Column Row Layer    Max.-Flux-Residual            L2-New               L2-Old           Solver-Max-Delh
          0                 1          10            81   45     1       0.2563718624E+01      81   46    1       0.8207401390E+05      0.4128277351E+06      0.1119098744E+03      0.2563718624E+01
          0                 2           9            65    4     2      -0.2202417374E+01      81   46    1      -0.8221440977E+04      0.4228822569E+05      0.4128277351E+06     -0.2202417374E+01
          0                 3           5            39   33     3      -0.7411469252E-01      49   41    1       0.5737268490E+03      0.7528776918E+03      0.4228822569E+05     -0.7411469252E-01
          0                 4           2            65    4     2       0.4152914168E-02      65    4    2       0.1787761277E+01      0.2355980036E+01      0.7528776918E+03      0.4152914168E-02

    ------------------------------------------------
       NWT REQUIRED            4 OUTER ITERATIONS 
       AND A TOTAL OF         26 INNER ITERATIONS.
    ------------------------------------------------

 NO OUTPUT CONTROL FOR STRESS PERIOD   52   TIME STEP   11
 
 SOLVING FOR HEAD 
                                                   Max.-Head-Change                        Max.-Flux-Residual
  Residual-Control   Outer-Iter.   Inner-Iter.     Column Row Layer    Max.-Head-Change    Column Row Layer    Max.-Flux-Residual            L2-New               L2-Old           Solver-Max-Delh
          0                 1          10            65    4     2      -0.2995665231E+01      81   46    1       0.7933311762E+05      0.4033192770E+06      0.2355980036E+01     -0.2995665231E+01
          0                 2           9            81   45     1      -0.2243626506E+00      81   46    1      -0.7946402096E+04      0.4140083299E+05      0.4033192770E+06     -0.2243626506E+00
          0                 3           5            87   61     2       0.6530678792E-02      87   61    3      -0.6639776980E+01      0.2376325472E+02      0.4140083299E+05      0.6530678792E-02

    ------------------------------------------------
       NWT REQUIRED            3 OUTER ITERATIONS 
       AND A TOTAL OF         24 INNER ITERATIONS.
    ------------------------------------------------

 OUTPUT CONTROL FOR STRESS PERIOD   52   TIME STEP   12
    SAVE BUDGET
 UBDSV1 SAVING "         STORAGE" ON UNIT  39 AT TIME STEP 12, STRESS PERIOD  52
 UBDSV2 SAVING "   CONSTANT HEAD" ON UNIT  39 AT TIME STEP 12, STRESS PERIOD  52
 UBDSV1 SAVING "FLOW RIGHT FACE " ON UNIT  39 AT TIME STEP 12, STRESS PERIOD  52
 UBDSV1 SAVING "FLOW FRONT FACE " ON UNIT  39 AT TIME STEP 12, STRESS PERIOD  52
 UBDSV1 SAVING "FLOW LOWER FACE " ON UNIT  39 AT TIME STEP 12, STRESS PERIOD  52
 UBDSV4 SAVING "           WELLS" ON UNIT  39 AT TIME STEP 12, STRESS PERIOD  52
 UBDSV3 SAVING "              ET" ON UNIT  39 AT TIME STEP 12, STRESS PERIOD  52
 UBDSV3 SAVING "        RECHARGE" ON UNIT  39 AT TIME STEP 12, STRESS PERIOD  52
1
  VOLUMETRIC BUDGET FOR ENTIRE MODEL AT END OF TIME STEP   12, STRESS PERIOD  52
  ------------------------------------------------------------------------------

     CUMULATIVE VOLUMES      L**3       RATES FOR THIS TIME STEP      L**3/T
     ------------------                 ------------------------

           IN:                                      IN:
           ---                                      ---
             STORAGE     =335118336000.0000               STORAGE     =    14681097.0000
       CONSTANT HEAD     = 32420089856.0000         CONSTANT HEAD     =     2606674.7500
               WELLS     = 23278127104.0000                 WELLS     =     1225642.0000
                  ET     =           0.0000                    ET     =           0.0000
            RECHARGE     =380853518336.0000              RECHARGE     =    22934732.0000

                TOTAL IN =771670081536.0000                  TOTAL IN =    41448144.0000

          OUT:                                     OUT:
          ----                                     ----
             STORAGE     = 66574864384.0000               STORAGE     =     4061971.7500
       CONSTANT HEAD     = 61714923520.0000         CONSTANT HEAD     =     1963399.8750
               WELLS     =624376807424.0000                 WELLS     =    34270612.0000
                  ET     = 19002908672.0000                    ET     =     1152162.7500
            RECHARGE     =           0.0000              RECHARGE     =           0.0000

               TOTAL OUT =771669491712.0000                 TOTAL OUT =    41448148.0000

                IN - OUT =      589824.0000                  IN - OUT =          -4.0000

     PERCENT DISCREPANCY =           0.00         PERCENT DISCREPANCY =          -0.00






         TIME SUMMARY AT END OF TIME STEP   12 IN STRESS PERIOD   52
                    SECONDS     MINUTES      HOURS       DAYS        YEARS
                    -----------------------------------------------------------
   TIME STEP LENGTH 2.62800E+06  43800.      730.00      30.417     8.32763E-02
 STRESS PERIOD TIME 3.15360E+07 5.25600E+05  8760.0      365.00     0.99932    
         TOTAL TIME 1.64100E+09 2.73499E+07 4.55832E+05  18993.      52.000    
1
1
                            STRESS PERIOD NO.   53, LENGTH =   366.0000    
                            -----------------------------------------------

                              NUMBER OF TIME STEPS =    12

                               MULTIPLIER FOR DELT =     1.000

                            INITIAL TIME STEP SIZE =   30.50000    

   1828 WELLS

 REUSING SURF FROM LAST STRESS PERIOD

 REUSING EVTR FROM LAST STRESS PERIOD

 REUSING EXDP FROM LAST STRESS PERIOD



                           RECHARGE
 READING ON UNIT   16 WITH FORMAT: (15F5.0)            


     63 TIME-VARIANT SPECIFIED-HEAD CELLS
 
 SOLVING FOR HEAD 
                                                   Max.-Head-Change                        Max.-Flux-Residual
  Residual-Control   Outer-Iter.   Inner-Iter.     Column Row Layer    Max.-Head-Change    Column Row Layer    Max.-Flux-Residual            L2-New               L2-Old           Solver-Max-Delh
          0                 1          11            87   54     3       0.2693805734E+02      61   85    3      -0.1497059572E+06      0.8214303458E+06      0.2376325472E+02      0.2693805734E+02
          0                 2          10            22   44     2      -0.2697874249E+01      22   44    2      -0.5433943375E+05      0.1217936319E+06      0.8214303458E+06     -0.2697874249E+01
          0                 3           7            22   43     2       0.1197868838E+00      56   81    2      -0.3759334592E+04      0.4182938431E+04      0.1217936319E+06      0.1197868838E+00
          0                 4           6            22   43     2       0.1200021819E-01      56   81    2      -0.3385726991E+03      0.3429119343E+03      0.4182938431E+04      0.1200021819E-01
          0                 5           4            22   43     2       0.1181791639E-02      56   81    2      -0.3043958452E+02      0.3087023869E+02      0.3429119343E+03      0.1181791639E-02

    ------------------------------------------------
       NWT REQUIRED            5 OUTER ITERATIONS 
       AND A TOTAL OF         38 INNER ITERATIONS.
    ------------------------------------------------

 NO OUTPUT CONTROL FOR STRESS PERIOD   53   TIME STEP    1
 
 SOLVING FOR HEAD 
                                                   Max.-Head-Change                        Max.-Flux-Residual
  Residual-Control   Outer-Iter.   Inner-Iter.     Column Row Layer    Max.-Head-Change    Column Row Layer    Max.-Flux-Residual            L2-New               L2-Old           Solver-Max-Delh
          0                 1          10            87   54     3       0.4202075575E+01      61   85    2      -0.7389807289E+05      0.5689116778E+06      0.3087023869E+02      0.4202075575E+01
          0                 2           9            56   81     2      -0.2307507147E+01      25   22    1      -0.7427606581E+04      0.5843777703E+05      0.5689116778E+06     -0.2307507147E+01
          0                 3           5            56   81     2       0.1920980656E+00      56   81    2       0.6506423353E+03      0.7876773192E+03      0.5843777703E+05      0.1920980656E+00
          0                 4           3            56   81     2       0.1468909465E-02      45   30    1      -0.8026704758E+01      0.9998191215E+01      0.7876773192E+03      0.1468909465E-02

    ------------------------------------------------
       NWT REQUIRED            4 OUTER ITERATIONS 
       AND A TOTAL OF         27 INNER ITERATIONS.
    ------------------------------------------------

 NO OUTPUT CONTROL FOR STRESS PERIOD   53   TIME STEP    2
 
 SOLVING FOR HEAD 
                                                   Max.-Head-Change                        Max.-Flux-Residual
  Residual-Control   Outer-Iter.   Inner-Iter.     Column Row Layer    Max.-Head-Change    Column Row Layer    Max.-Flux-Residual            L2-New               L2-Old           Solver-Max-Delh
          0                 1          10            53  107     3       0.2800778187E+01      61   85    2      -0.6444062989E+05      0.4950332427E+06      0.9998191215E+01      0.2800778187E+01
          0                 2           9            66   52     1      -0.1471402429E+01      66   52    1      -0.7613152608E+04      0.5063274926E+05      0.4950332427E+06     -0.1471402429E+01
          0                 3           7            66   52     1       0.1250906205E+00      66   52    1       0.7115722659E+03      0.1108607806E+04      0.5063274926E+05      0.1250906205E+00
          0                 4           6            66   52     1       0.7779026956E-03      22   40    3       0.2837444117E+02      0.3911500469E+02      0.1108607806E+04      0.7779026956E-03

    ------------------------------------------------
       NWT REQUIRED            4 OUTER ITERATIONS 
       AND A TOTAL OF         32 INNER ITERATIONS.
    ------------------------------------------------

 NO OUTPUT CONTROL FOR STRESS PERIOD   53   TIME STEP    3
 
 SOLVING FOR HEAD 
                                                   Max.-Head-Change                        Max.-Flux-Residual
  Residual-Control   Outer-Iter.   Inner-Iter.     Column Row Layer    Max.-Head-Change    Column Row Layer    Max.-Flux-Residual            L2-New               L2-Old           Solver-Max-Delh
          0                 1          10            53  107     3       0.2594005345E+01      61   85    2      -0.5668716407E+05      0.4560206292E+06      0.3911500469E+02      0.2594005345E+01
          0                 2           9            90   67     2       0.2097604565E+01      90   67    2       0.1929044542E+05      0.5036430145E+05      0.4560206292E+06      0.2097604565E+01
          0                 3           6            90   67     2      -0.1906439871E+00      57   74    1      -0.4778308400E+04      0.5200616419E+04      0.5036430145E+05     -0.1906439871E+00
          0                 4           3            57   74     1      -0.8506275252E-02      57   74    1      -0.4303013415E+03      0.4303099815E+03      0.5200616419E+04     -0.8506275252E-02

    ------------------------------------------------
       NWT REQUIRED            4 OUTER ITERATIONS 
       AND A TOTAL OF         28 INNER ITERATIONS.
    ------------------------------------------------

 NO OUTPUT CONTROL FOR STRESS PERIOD   53   TIME STEP    4
 
 SOLVING FOR HEAD 
                                                   Max.-Head-Change                        Max.-Flux-Residual
  Residual-Control   Outer-Iter.   Inner-Iter.     Column Row Layer    Max.-Head-Change    Column Row Layer    Max.-Flux-Residual            L2-New               L2-Old           Solver-Max-Delh
          0                 1          10            53  107     3       0.2401116177E+01      61   85    2      -0.5087443537E+05      0.4322639488E+06      0.4303099815E+03      0.2401116177E+01
          0                 2           9            57   82     3       0.2601616877E+00      57   82    3       0.8204304223E+04      0.4404214909E+05      0.4322639488E+06      0.2601616877E+00
          0                 3           5            57   74     1       0.8713149885E-02      57   74    1       0.1551380453E+03      0.1642507373E+03      0.4404214909E+05      0.8713149885E-02

    ------------------------------------------------
       NWT REQUIRED            3 OUTER ITERATIONS 
       AND A TOTAL OF         24 INNER ITERATIONS.
    ------------------------------------------------

 NO OUTPUT CONTROL FOR STRESS PERIOD   53   TIME STEP    5
 
 SOLVING FOR HEAD 
                                                   Max.-Head-Change                        Max.-Flux-Residual
  Residual-Control   Outer-Iter.   Inner-Iter.     Column Row Layer    Max.-Head-Change    Column Row Layer    Max.-Flux-Residual            L2-New               L2-Old           Solver-Max-Delh
          0                 1          10            53  107     3       0.2221949337E+01      61   85    2      -0.4652401004E+05      0.4150640286E+06      0.1642507373E+03      0.2221949337E+01
          0                 2           9            81   59     1      -0.3056421029E+00      60   65    2       0.1199865770E+05      0.4377487596E+05      0.4150640286E+06     -0.3056421029E+00
          0                 3           6            60   65     1      -0.6164458547E-01      60   65    1      -0.5567165836E+04      0.5591010626E+04      0.4377487596E+05     -0.6164458547E-01
          0                 4           4            60   65     1      -0.5561225631E-02      60   65    1      -0.5019229646E+03      0.5025512423E+03      0.5591010626E+04     -0.5561225631E-02

    ------------------------------------------------
       NWT REQUIRED            4 OUTER ITERATIONS 
       AND A TOTAL OF         29 INNER ITERATIONS.
    ------------------------------------------------

 NO OUTPUT CONTROL FOR STRESS PERIOD   53   TIME STEP    6
 
 SOLVING FOR HEAD 
                                                   Max.-Head-Change                        Max.-Flux-Residual
  Residual-Control   Outer-Iter.   Inner-Iter.     Column Row Layer    Max.-Head-Change    Column Row Layer    Max.-Flux-Residual            L2-New               L2-Old           Solver-Max-Delh
          0                 1          10            81   59     1      -0.4853297235E+01      88   65    1       0.4359349090E+05      0.4018499118E+06      0.5025512423E+03     -0.4853297235E+01
          0                 2           9            58   83     2      -0.2939103416E+01      55   40    2       0.1076576944E+05      0.4419249943E+05      0.4018499118E+06     -0.2939103416E+01
          0                 3           5            58   83     2       0.2164131398E+00      58   83    2       0.7791966083E+03      0.1354797455E+04      0.4419249943E+05      0.2164131398E+00
          0                 4           3            58   83     1       0.3926881113E-02      58   83    1       0.6486800894E+01      0.1031639753E+02      0.1354797455E+04      0.3926881113E-02

    ------------------------------------------------
       NWT REQUIRED            4 OUTER ITERATIONS 
       AND A TOTAL OF         27 INNER ITERATIONS.
    ------------------------------------------------

 NO OUTPUT CONTROL FOR STRESS PERIOD   53   TIME STEP    7
 
 SOLVING FOR HEAD 
                                                   Max.-Head-Change                        Max.-Flux-Residual
  Residual-Control   Outer-Iter.   Inner-Iter.     Column Row Layer    Max.-Head-Change    Column Row Layer    Max.-Flux-Residual            L2-New               L2-Old           Solver-Max-Delh
          0                 1          10            53  107     3       0.1902789867E+01      91   67    2       0.4199613161E+05      0.3916182553E+06      0.1031639753E+02      0.1902789867E+01
          0                 2           9            91   67     1      -0.1080321386E+01      91   67    1      -0.4749588170E+05      0.6190023087E+05      0.3916182553E+06     -0.1080321386E+01
          0                 3           5            83   60     1       0.5260709360E-01      75   61    1       0.1749729885E+03      0.2725873434E+03      0.6190023087E+05      0.5260709360E-01
          0                 4           2            83   60     1       0.1326011072E-02      83   60    1       0.1471520583E+01      0.2394553901E+01      0.2725873434E+03      0.1326011072E-02

    ------------------------------------------------
       NWT REQUIRED            4 OUTER ITERATIONS 
       AND A TOTAL OF         26 INNER ITERATIONS.
    ------------------------------------------------

 NO OUTPUT CONTROL FOR STRESS PERIOD   53   TIME STEP    8
 
 SOLVING FOR HEAD 
                                                   Max.-Head-Change                        Max.-Flux-Residual
  Residual-Control   Outer-Iter.   Inner-Iter.     Column Row Layer    Max.-Head-Change    Column Row Layer    Max.-Flux-Residual            L2-New               L2-Old           Solver-Max-Delh
          0                 1          10            83   60     1      -0.3307810668E+01      88   65    1       0.4019314829E+05      0.3824554153E+06      0.2394553901E+01     -0.3307810668E+01
          0                 2           9            61   81     1      -0.2847055322E+00      58   61    2       0.1146494568E+05      0.4239616647E+05      0.3824554153E+06     -0.2847055322E+00
          0                 3           5            61   81     1       0.2541629001E-01      61   81    1       0.8202484533E+03      0.8427353075E+03      0.4239616647E+05      0.2541629001E-01
          0                 4           2            85   85     2      -0.1795427912E-03      61   70    1      -0.2064803943E+01      0.2342586806E+01      0.8427353075E+03     -0.1795427912E-03

    ------------------------------------------------
       NWT REQUIRED            4 OUTER ITERATIONS 
       AND A TOTAL OF         26 INNER ITERATIONS.
    ------------------------------------------------

 NO OUTPUT CONTROL FOR STRESS PERIOD   53   TIME STEP    9
 
 SOLVING FOR HEAD 
                                                   Max.-Head-Change                        Max.-Flux-Residual
  Residual-Control   Outer-Iter.   Inner-Iter.     Column Row Layer    Max.-Head-Change    Column Row Layer    Max.-Flux-Residual            L2-New               L2-Old           Solver-Max-Delh
          0                 1          10            53  107     3       0.1631345355E+01      88   65    1       0.3862082035E+05      0.3747236893E+06      0.2342586806E+01      0.1631345355E+01
          0                 2           9            57   82     2      -0.4506794197E+00      25   22    2       0.4086690047E+04      0.3831206153E+05      0.3747236893E+06     -0.4506794197E+00
          0                 3           5            62   58     1      -0.5507366507E-01      62   58    1      -0.3113343095E+04      0.3177316281E+04      0.3831206153E+05     -0.5507366507E-01
          0                 4           3            62   58     1      -0.4962738758E-02      62   58    1      -0.2804493718E+03      0.2805403338E+03      0.3177316281E+04     -0.4962738758E-02

    ------------------------------------------------
       NWT REQUIRED            4 OUTER ITERATIONS 
       AND A TOTAL OF         27 INNER ITERATIONS.
    ------------------------------------------------

 NO OUTPUT CONTROL FOR STRESS PERIOD   53   TIME STEP   10
 
 SOLVING FOR HEAD 
                                                   Max.-Head-Change                        Max.-Flux-Residual
  Residual-Control   Outer-Iter.   Inner-Iter.     Column Row Layer    Max.-Head-Change    Column Row Layer    Max.-Flux-Residual            L2-New               L2-Old           Solver-Max-Delh
          0                 1          10            57   82     2      -0.1941375901E+01      88   65    1       0.3712844752E+05      0.3683791597E+06      0.2805403338E+03     -0.1941375901E+01
          0                 2           9            57   82     2       0.1719354187E+00      75   48    1      -0.4930944858E+04      0.3786961110E+05      0.3683791597E+06      0.1719354187E+00
          0                 3           5            62   58     1       0.1294972344E-01      62   58    1       0.3273426721E+03      0.3425207250E+03      0.3786961110E+05      0.1294972344E-01
          0                 4           2            85   85     2      -0.1801866446E-03      62   58    1       0.3664460778E+00      0.4681012309E+00      0.3425207250E+03     -0.1801866446E-03

    ------------------------------------------------
       NWT REQUIRED            4 OUTER ITERATIONS 
       AND A TOTAL OF         26 INNER ITERATIONS.
    ------------------------------------------------

 NO OUTPUT CONTROL FOR STRESS PERIOD   53   TIME STEP   11
 
 SOLVING FOR HEAD 
                                                   Max.-Head-Change                        Max.-Flux-Residual
  Residual-Control   Outer-Iter.   Inner-Iter.     Column Row Layer    Max.-Head-Change    Column Row Layer    Max.-Flux-Residual            L2-New               L2-Old           Solver-Max-Delh
          0                 1          10            55   40     1      -0.1408000387E+01      88   65    1       0.3571029286E+05      0.3627473033E+06      0.4681012309E+00     -0.1408000387E+01
          0                 2           9            79   58     1      -0.6716591123E+00      19   17    1      -0.4382383455E+04      0.3694489299E+05      0.3627473033E+06     -0.6716591123E+00
          0                 3           5            79   58     1       0.5227023587E-01      57   40    1       0.3227756371E+03      0.4496361381E+03      0.3694489299E+05      0.5227023587E-01
          0                 4           2            79   58     1       0.6966619558E-03      54   49    2      -0.9939809561E+01      0.1010825577E+02      0.4496361381E+03      0.6966619558E-03

    ------------------------------------------------
       NWT REQUIRED            4 OUTER ITERATIONS 
       AND A TOTAL OF         26 INNER ITERATIONS.
    ------------------------------------------------

 OUTPUT CONTROL FOR STRESS PERIOD   53   TIME STEP   12
    SAVE BUDGET
 UBDSV1 SAVING "         STORAGE" ON UNIT  39 AT TIME STEP 12, STRESS PERIOD  53
 UBDSV2 SAVING "   CONSTANT HEAD" ON UNIT  39 AT TIME STEP 12, STRESS PERIOD  53
 UBDSV1 SAVING "FLOW RIGHT FACE " ON UNIT  39 AT TIME STEP 12, STRESS PERIOD  53
 UBDSV1 SAVING "FLOW FRONT FACE " ON UNIT  39 AT TIME STEP 12, STRESS PERIOD  53
 UBDSV1 SAVING "FLOW LOWER FACE " ON UNIT  39 AT TIME STEP 12, STRESS PERIOD  53
 UBDSV4 SAVING "           WELLS" ON UNIT  39 AT TIME STEP 12, STRESS PERIOD  53
 UBDSV3 SAVING "              ET" ON UNIT  39 AT TIME STEP 12, STRESS PERIOD  53
 UBDSV3 SAVING "        RECHARGE" ON UNIT  39 AT TIME STEP 12, STRESS PERIOD  53
1
  VOLUMETRIC BUDGET FOR ENTIRE MODEL AT END OF TIME STEP   12, STRESS PERIOD  53
  ------------------------------------------------------------------------------

     CUMULATIVE VOLUMES      L**3       RATES FOR THIS TIME STEP      L**3/T
     ------------------                 ------------------------

           IN:                                      IN:
           ---                                      ---
             STORAGE     =340517912576.0000               STORAGE     =    14078517.0000
       CONSTANT HEAD     = 33324347392.0000         CONSTANT HEAD     =     2450391.2500
               WELLS     = 23726712832.0000                 WELLS     =     1225642.0000
                  ET     =           0.0000                    ET     =           0.0000
            RECHARGE     =389053644800.0000              RECHARGE     =    22405218.0000

                TOTAL IN =786622578688.0000                  TOTAL IN =    40159768.0000

          OUT:                                     OUT:
          ----                                     ----
             STORAGE     = 68551528448.0000               STORAGE     =     4674155.0000
       CONSTANT HEAD     = 62488133632.0000         CONSTANT HEAD     =     2145115.2500
               WELLS     =636164636672.0000                 WELLS     =    32205386.0000
                  ET     = 19417917440.0000                    ET     =     1135115.0000
            RECHARGE     =           0.0000              RECHARGE     =           0.0000

               TOTAL OUT =786622185472.0000                 TOTAL OUT =    40159772.0000

                IN - OUT =      393216.0000                  IN - OUT =          -4.0000

     PERCENT DISCREPANCY =           0.00         PERCENT DISCREPANCY =          -0.00






         TIME SUMMARY AT END OF TIME STEP   12 IN STRESS PERIOD   53
                    SECONDS     MINUTES      HOURS       DAYS        YEARS
                    -----------------------------------------------------------
   TIME STEP LENGTH 2.63520E+06  43920.      732.00      30.500     8.35044E-02
 STRESS PERIOD TIME 3.16224E+07 5.27040E+05  8784.0      366.00      1.0021    
         TOTAL TIME 1.67262E+09 2.78770E+07 4.64616E+05  19359.      53.002    
1
1
                            STRESS PERIOD NO.   54, LENGTH =   365.0000    
                            -----------------------------------------------

                              NUMBER OF TIME STEPS =    12

                               MULTIPLIER FOR DELT =     1.000

                            INITIAL TIME STEP SIZE =   30.41667    

   1738 WELLS

 REUSING SURF FROM LAST STRESS PERIOD

 REUSING EVTR FROM LAST STRESS PERIOD

 REUSING EXDP FROM LAST STRESS PERIOD



                           RECHARGE
 READING ON UNIT   16 WITH FORMAT: (15F5.0)            


     63 TIME-VARIANT SPECIFIED-HEAD CELLS
 
 SOLVING FOR HEAD 
                                                   Max.-Head-Change                        Max.-Flux-Residual
  Residual-Control   Outer-Iter.   Inner-Iter.     Column Row Layer    Max.-Head-Change    Column Row Layer    Max.-Flux-Residual            L2-New               L2-Old           Solver-Max-Delh
          0                 1          11            92   77     2       0.1112766340E+03      83   51    1       0.2826403098E+06      0.2041968003E+07      0.1010825577E+02      0.1112766340E+03
          0                 2          10            65    7     2      -0.5416334223E+02      65    7    2      -0.1497066348E+07      0.2345458679E+07      0.2041968003E+07     -0.5416334223E+02
          0                 3           7            66    7     2       0.1977576113E+02      65    7    2      -0.4287437273E+05      0.6324100726E+05      0.2345458679E+07      0.1977576113E+02
          1                 3           0            66    7     2       0.1779818455E+02      65    3    2      -0.2483292625E+06      0.4131599898E+06      0.6324100726E+05      0.1977576113E+02
          2                 3           0            66    7     2       0.1601836567E+02      65    3    2      -0.2225548594E+06      0.3703356250E+06      0.4131599898E+06      0.1977576113E+02
          3                 3           0            66    7     2       0.1441652872E+02      65    3    2      -0.1993779209E+06      0.3319394569E+06      0.3703356250E+06      0.1977576113E+02
          4                 3           0            66    7     2       0.1297487551E+02      65    3    2      -0.1785348958E+06      0.2975364152E+06      0.3319394569E+06      0.1977576113E+02
          5                 3           0            66    7     2       0.1167738765E+02      65    3    2      -0.1597893112E+06      0.2667378400E+06      0.2975364152E+06      0.1977576113E+02
          6                 3           0            66    7     2       0.1050964860E+02      65    3    2      -0.1429289268E+06      0.2391967744E+06      0.2667378400E+06      0.1977576113E+02
          7                 3           0            66    7     2       0.9458683492E+01      65    3    2      -0.1277632008E+06      0.2146037492E+06      0.2391967744E+06      0.1977576113E+02
                                                   Max.-Head-Change                        Max.-Flux-Residual
  Residual-Control   Outer-Iter.   Inner-Iter.     Column Row Layer    Max.-Head-Change    Column Row Layer    Max.-Flux-Residual            L2-New               L2-Old           Solver-Max-Delh
          8                 3           0            66    7     2       0.8512814917E+01      65    3    2      -0.1141210295E+06      0.1926829777E+06      0.2146037492E+06      0.1977576113E+02
          9                 3           0            66    7     2       0.7661533223E+01      65    3    2      -0.1018487310E+06      0.1731888774E+06      0.1926829777E+06      0.1977576113E+02
         10                 3           0            66    7     2       0.6895379718E+01      65    3    2      -0.9080824330E+05      0.1559028338E+06      0.1731888774E+06      0.1977576113E+02
         11                 3           0            66    7     2       0.6205841581E+01      65    3    2      -0.8087551507E+05      0.1406328633E+06      0.1559028338E+06      0.1977576113E+02
         12                 3           0            66    7     2       0.5585257275E+01      65    3    2      -0.7193906533E+05      0.1272010134E+06      0.1406328633E+06      0.1977576113E+02
          0                 4           7            66    7     2       0.1509760873E+02      66    4    2      -0.6393235454E+05      0.1154515419E+06      0.1272010134E+06      0.1509760873E+02
          0                 5           5            66    7     2       0.2197674687E+01      66    4    2      -0.1098262664E+05      0.1839055867E+05      0.1154515419E+06      0.2197674687E+01
          0                 6           4            66    7     2       0.9386545668E+00      66    4    2      -0.1878263602E+04      0.3167203887E+04      0.1839055867E+05      0.9386545668E+00
          0                 7           3            66    7     2       0.1370829414E+00      66    4    2      -0.3208428572E+03      0.5392318165E+03      0.3167203887E+04      0.1370829414E+00
          0                 8           2            66    7     2       0.2000956262E-01      66    4    2      -0.5476849154E+02      0.9185678336E+02      0.5392318165E+03      0.2000956262E-01
          0                 9           2            66    7     2       0.2918915126E-02      66    4    2      -0.9343463874E+01      0.1564899188E+02      0.9185678336E+02      0.2918915126E-02

    ------------------------------------------------
       NWT REQUIRED            9 OUTER ITERATIONS 
       AND A TOTAL OF         51 INNER ITERATIONS.
    ------------------------------------------------

 NO OUTPUT CONTROL FOR STRESS PERIOD   54   TIME STEP    1
 
 SOLVING FOR HEAD 
                                                   Max.-Head-Change                        Max.-Flux-Residual
  Residual-Control   Outer-Iter.   Inner-Iter.     Column Row Layer    Max.-Head-Change    Column Row Layer    Max.-Flux-Residual            L2-New               L2-Old           Solver-Max-Delh
          0                 1          11            84   56     3       0.1341325048E+02      83   51    1       0.2419713442E+06      0.1565206109E+07      0.1564899188E+02      0.1341325048E+02
          0                 2           9            83   52     2       0.2113604849E+01      69   21    1      -0.6526903970E+05      0.2096189497E+06      0.1565206109E+07      0.2113604849E+01
          0                 3           7            83   52     2      -0.1921812424E+00      17   15    2       0.5432561171E+04      0.8340446602E+04      0.2096189497E+06     -0.1921812424E+00
          0                 4           5            17   15     2       0.2764191650E-02      17   15    2       0.4887451836E+03      0.4892956211E+03      0.8340446602E+04      0.2764191650E-02

    ------------------------------------------------
       NWT REQUIRED            4 OUTER ITERATIONS 
       AND A TOTAL OF         32 INNER ITERATIONS.
    ------------------------------------------------

 NO OUTPUT CONTROL FOR STRESS PERIOD   54   TIME STEP    2
 
 SOLVING FOR HEAD 
                                                   Max.-Head-Change                        Max.-Flux-Residual
  Residual-Control   Outer-Iter.   Inner-Iter.     Column Row Layer    Max.-Head-Change    Column Row Layer    Max.-Flux-Residual            L2-New               L2-Old           Solver-Max-Delh
          0                 1          11            92   52     1       0.5844605178E+01      92   52    1       0.2096939708E+06      0.1359199341E+07      0.4892956211E+03      0.5844605178E+01
          0                 2           9            82   52     1      -0.1914649252E+01      82   52    1      -0.8743759354E+05      0.1792592515E+06      0.1359199341E+07     -0.1914649252E+01
          0                 3           6            89   65     2      -0.1639352880E+00      17   15    2      -0.2700009212E+04      0.3760692203E+04      0.1792592515E+06     -0.1639352880E+00
          0                 4           3            82   53     1       0.2152982286E-02      59  102    2       0.6151841059E+01      0.8929927035E+01      0.3760692203E+04      0.2152982286E-02

    ------------------------------------------------
       NWT REQUIRED            4 OUTER ITERATIONS 
       AND A TOTAL OF         29 INNER ITERATIONS.
    ------------------------------------------------

 NO OUTPUT CONTROL FOR STRESS PERIOD   54   TIME STEP    3
 
 SOLVING FOR HEAD 
                                                   Max.-Head-Change                        Max.-Flux-Residual
  Residual-Control   Outer-Iter.   Inner-Iter.     Column Row Layer    Max.-Head-Change    Column Row Layer    Max.-Flux-Residual            L2-New               L2-Old           Solver-Max-Delh
          0                 1          11            88   64     1       0.5512320531E+01      92   52    1       0.1944850907E+06      0.1227663335E+07      0.8929927035E+01      0.5512320531E+01
          0                 2           9            84   52     1      -0.9037992810E+00      84   52    1      -0.5043415405E+05      0.1383109839E+06      0.1227663335E+07     -0.9037992810E+00
          0                 3           6            66   25     2      -0.7396821062E-01      66   25    2      -0.1724164200E+04      0.2730380904E+04      0.1383109839E+06     -0.7396821062E-01
          0                 4           3            58   61     1      -0.4300806184E-02      58   61    1      -0.4881840084E+03      0.5053645185E+03      0.2730380904E+04     -0.4300806184E-02

    ------------------------------------------------
       NWT REQUIRED            4 OUTER ITERATIONS 
       AND A TOTAL OF         29 INNER ITERATIONS.
    ------------------------------------------------

 NO OUTPUT CONTROL FOR STRESS PERIOD   54   TIME STEP    4
 
 SOLVING FOR HEAD 
                                                   Max.-Head-Change                        Max.-Flux-Residual
  Residual-Control   Outer-Iter.   Inner-Iter.     Column Row Layer    Max.-Head-Change    Column Row Layer    Max.-Flux-Residual            L2-New               L2-Old           Solver-Max-Delh
          0                 1          11            88   64     1       0.5254548753E+01      92   52    1       0.1803778100E+06      0.1133847904E+07      0.5053645185E+03      0.5254548753E+01
          0                 2           9            73   15     3       0.2659048712E+01      73   15    3       0.2021700224E+05      0.1200722962E+06      0.1133847904E+07      0.2659048712E+01
          0                 3           7            73   15     3      -0.2070390309E+00      44   30    2       0.3111245509E+04      0.3798842501E+04      0.1200722962E+06     -0.2070390309E+00
          0                 4           5            78   68     1       0.2153449004E-02      44   30    2       0.2799737744E+03      0.2800650805E+03      0.3798842501E+04      0.2153449004E-02

    ------------------------------------------------
       NWT REQUIRED            4 OUTER ITERATIONS 
       AND A TOTAL OF         32 INNER ITERATIONS.
    ------------------------------------------------

 NO OUTPUT CONTROL FOR STRESS PERIOD   54   TIME STEP    5
 
 SOLVING FOR HEAD 
                                                   Max.-Head-Change                        Max.-Flux-Residual
  Residual-Control   Outer-Iter.   Inner-Iter.     Column Row Layer    Max.-Head-Change    Column Row Layer    Max.-Flux-Residual            L2-New               L2-Old           Solver-Max-Delh
          0                 1          11            88   64     1       0.5007121643E+01      88   65    1       0.1689838697E+06      0.1062621518E+07      0.2800650805E+03      0.5007121643E+01
          0                 2           9            80   45     2       0.2321582325E+01      44   30    2       0.2212576909E+05      0.1133941913E+06      0.1062621518E+07      0.2321582325E+01
          0                 3           7            80   45     2      -0.2110529120E+00      26   20    2       0.3397416310E+04      0.4380591035E+04      0.1133941913E+06     -0.2110529120E+00
          0                 4           6            26   20     2       0.1696059328E-02      26   20    2       0.3057311031E+03      0.3057488387E+03      0.4380591035E+04      0.1696059328E-02

    ------------------------------------------------
       NWT REQUIRED            4 OUTER ITERATIONS 
       AND A TOTAL OF         33 INNER ITERATIONS.
    ------------------------------------------------

 NO OUTPUT CONTROL FOR STRESS PERIOD   54   TIME STEP    6
 
 SOLVING FOR HEAD 
                                                   Max.-Head-Change                        Max.-Flux-Residual
  Residual-Control   Outer-Iter.   Inner-Iter.     Column Row Layer    Max.-Head-Change    Column Row Layer    Max.-Flux-Residual            L2-New               L2-Old           Solver-Max-Delh
          0                 1          11            91   67     2       0.1250667656E+02      88   65    1       0.1615360117E+06      0.1008118872E+07      0.3057488387E+03      0.1250667656E+02
          0                 2           9            91   67     2      -0.1147855664E+01      35   29    1      -0.1760565190E+05      0.1038988123E+06      0.1008118872E+07     -0.1147855664E+01
          0                 3           7            35   29     2       0.3253207127E-01      35   29    2       0.2039784165E+04      0.2277117687E+04      0.1038988123E+06      0.3253207127E-01
          0                 4           5            35   29     2       0.2927763019E-02      35   29    2       0.1835556024E+03      0.1836110478E+03      0.2277117687E+04      0.2927763019E-02

    ------------------------------------------------
       NWT REQUIRED            4 OUTER ITERATIONS 
       AND A TOTAL OF         32 INNER ITERATIONS.
    ------------------------------------------------

 NO OUTPUT CONTROL FOR STRESS PERIOD   54   TIME STEP    7
 
 SOLVING FOR HEAD 
                                                   Max.-Head-Change                        Max.-Flux-Residual
  Residual-Control   Outer-Iter.   Inner-Iter.     Column Row Layer    Max.-Head-Change    Column Row Layer    Max.-Flux-Residual            L2-New               L2-Old           Solver-Max-Delh
          0                 1          11            91   67     1       0.4624158424E+01      91   67    1       0.1702115232E+06      0.9699347510E+06      0.1836110478E+03      0.4624158424E+01
          0                 2           9            70   19     2       0.2612551249E+01      70   19    2       0.2974578669E+05      0.1154117038E+06      0.9699347510E+06      0.2612551249E+01
          0                 3           6            70   19     2      -0.2375205515E+00      70   19    2      -0.2968122367E+04      0.4033447038E+04      0.1154117038E+06     -0.2375205515E+00
          0                 4           2            91   77     2      -0.1917063446E-03      60   80    2       0.4881519973E+00      0.7566565847E+00      0.4033447038E+04     -0.1917063446E-03

    ------------------------------------------------
       NWT REQUIRED            4 OUTER ITERATIONS 
       AND A TOTAL OF         28 INNER ITERATIONS.
    ------------------------------------------------

 NO OUTPUT CONTROL FOR STRESS PERIOD   54   TIME STEP    8
 
 SOLVING FOR HEAD 
                                                   Max.-Head-Change                        Max.-Flux-Residual
  Residual-Control   Outer-Iter.   Inner-Iter.     Column Row Layer    Max.-Head-Change    Column Row Layer    Max.-Flux-Residual            L2-New               L2-Old           Solver-Max-Delh
          0                 1          11            72   15     2       0.5094744231E+01      91   67    1       0.1638333435E+06      0.9331560071E+06      0.7566565847E+00      0.5094744231E+01
          0                 2           9            73   14     1      -0.9791706388E+00      73   14    1      -0.3297958481E+05      0.1019891141E+06      0.9331560071E+06     -0.9791706388E+00
          0                 3           6            64   27     1      -0.1334296785E-01      23   21    2      -0.7254639349E+03      0.1040295360E+04      0.1019891141E+06     -0.1334296785E-01
          0                 4           2            91   77     2      -0.1787782899E-03      63    2    3       0.1998476092E+01      0.2150614101E+01      0.1040295360E+04     -0.1787782899E-03

    ------------------------------------------------
       NWT REQUIRED            4 OUTER ITERATIONS 
       AND A TOTAL OF         28 INNER ITERATIONS.
    ------------------------------------------------

 NO OUTPUT CONTROL FOR STRESS PERIOD   54   TIME STEP    9
 
 SOLVING FOR HEAD 
                                                   Max.-Head-Change                        Max.-Flux-Residual
  Residual-Control   Outer-Iter.   Inner-Iter.     Column Row Layer    Max.-Head-Change    Column Row Layer    Max.-Flux-Residual            L2-New               L2-Old           Solver-Max-Delh
          0                 1          11            91   67     1       0.4265464392E+01      91   67    1       0.1573668137E+06      0.9049881623E+06      0.2150614101E+01      0.4265464392E+01
          0                 2           9            84   58     2      -0.2282676984E+01      89   67    1      -0.3609305555E+05      0.1005350651E+06      0.9049881623E+06     -0.2282676984E+01
          0                 3           6            78   52     2      -0.1034300163E+00      78   52    2      -0.7356305672E+03      0.8040850972E+03      0.1005350651E+06     -0.1034300163E+00
          0                 4           2            84   58     1       0.2604094170E-02      59   75    1       0.1200728953E+01      0.2392018462E+01      0.8040850972E+03      0.2604094170E-02

    ------------------------------------------------
       NWT REQUIRED            4 OUTER ITERATIONS 
       AND A TOTAL OF         28 INNER ITERATIONS.
    ------------------------------------------------

 NO OUTPUT CONTROL FOR STRESS PERIOD   54   TIME STEP   10
 
 SOLVING FOR HEAD 
                                                   Max.-Head-Change                        Max.-Flux-Residual
  Residual-Control   Outer-Iter.   Inner-Iter.     Column Row Layer    Max.-Head-Change    Column Row Layer    Max.-Flux-Residual            L2-New               L2-Old           Solver-Max-Delh
          0                 1          11            78   52     2       0.4186210397E+01      91   67    1       0.1510023441E+06      0.8783099946E+06      0.2392018462E+01      0.4186210397E+01
          0                 2           9            79   85     1      -0.6793355623E+00      91   67    1      -0.1519029833E+05      0.9198871124E+05      0.8783099946E+06     -0.6793355623E+00
          0                 3           6            79   85     1       0.5512614096E-01      28   24    2      -0.8327209702E+03      0.1439244034E+04      0.9198871124E+05      0.5512614096E-01
          0                 4           2            79   85     1       0.5379902409E-03      79   85    1       0.1271015291E+01      0.1482998654E+01      0.1439244034E+04      0.5379902409E-03

    ------------------------------------------------
       NWT REQUIRED            4 OUTER ITERATIONS 
       AND A TOTAL OF         28 INNER ITERATIONS.
    ------------------------------------------------

 NO OUTPUT CONTROL FOR STRESS PERIOD   54   TIME STEP   11
 
 SOLVING FOR HEAD 
                                                   Max.-Head-Change                        Max.-Flux-Residual
  Residual-Control   Outer-Iter.   Inner-Iter.     Column Row Layer    Max.-Head-Change    Column Row Layer    Max.-Flux-Residual            L2-New               L2-Old           Solver-Max-Delh
          0                 1          11            91   67     1       0.3928234513E+01      91   67    1       0.1449030070E+06      0.8554432076E+06      0.1482998654E+01      0.3928234513E+01
          0                 2           9            92   67     2       0.8983513570E+01      92   67    2       0.6082008399E+05      0.1081836950E+06      0.8554432076E+06      0.8983513570E+01
          0                 3           5            92   67     2      -0.8166912927E+00      92   67    2      -0.6082008521E+04      0.6270090694E+04      0.1081836950E+06     -0.8166912927E+00
          0                 4           2            90   77     2       0.2466136866E-03      90   76    2       0.1155694157E+01      0.1960877607E+01      0.6270090694E+04      0.2466136866E-03

    ------------------------------------------------
       NWT REQUIRED            4 OUTER ITERATIONS 
       AND A TOTAL OF         27 INNER ITERATIONS.
    ------------------------------------------------

 OUTPUT CONTROL FOR STRESS PERIOD   54   TIME STEP   12
    SAVE BUDGET
 UBDSV1 SAVING "         STORAGE" ON UNIT  39 AT TIME STEP 12, STRESS PERIOD  54
 UBDSV2 SAVING "   CONSTANT HEAD" ON UNIT  39 AT TIME STEP 12, STRESS PERIOD  54
 UBDSV1 SAVING "FLOW RIGHT FACE " ON UNIT  39 AT TIME STEP 12, STRESS PERIOD  54
 UBDSV1 SAVING "FLOW FRONT FACE " ON UNIT  39 AT TIME STEP 12, STRESS PERIOD  54
 UBDSV1 SAVING "FLOW LOWER FACE " ON UNIT  39 AT TIME STEP 12, STRESS PERIOD  54
 UBDSV4 SAVING "           WELLS" ON UNIT  39 AT TIME STEP 12, STRESS PERIOD  54
 UBDSV3 SAVING "              ET" ON UNIT  39 AT TIME STEP 12, STRESS PERIOD  54
 UBDSV3 SAVING "        RECHARGE" ON UNIT  39 AT TIME STEP 12, STRESS PERIOD  54
1
  VOLUMETRIC BUDGET FOR ENTIRE MODEL AT END OF TIME STEP   12, STRESS PERIOD  54
  ------------------------------------------------------------------------------

     CUMULATIVE VOLUMES      L**3       RATES FOR THIS TIME STEP      L**3/T
     ------------------                 ------------------------

           IN:                                      IN:
           ---                                      ---
             STORAGE     =342861512704.0000               STORAGE     =     5043098.5000
       CONSTANT HEAD     = 34179833856.0000         CONSTANT HEAD     =     2295719.0000
               WELLS     = 24174069760.0000                 WELLS     =     1225642.0000
                  ET     =           0.0000                    ET     =           0.0000
            RECHARGE     =407861952512.0000              RECHARGE     =    51529660.0000

                TOTAL IN =809077374976.0000                  TOTAL IN =    60094120.0000

          OUT:                                     OUT:
          ----                                     ----
             STORAGE     = 78893383680.0000               STORAGE     =    26056680.0000
       CONSTANT HEAD     = 63382495232.0000         CONSTANT HEAD     =     2580932.0000
               WELLS     =646533021696.0000                 WELLS     =    28406850.0000
                  ET     = 20267855872.0000                    ET     =     3049660.2500
            RECHARGE     =           0.0000              RECHARGE     =           0.0000

               TOTAL OUT =809076719616.0000                 TOTAL OUT =    60094124.0000

                IN - OUT =      655360.0000                  IN - OUT =          -4.0000

     PERCENT DISCREPANCY =           0.00         PERCENT DISCREPANCY =          -0.00






         TIME SUMMARY AT END OF TIME STEP   12 IN STRESS PERIOD   54
                    SECONDS     MINUTES      HOURS       DAYS        YEARS
                    -----------------------------------------------------------
   TIME STEP LENGTH 2.62800E+06  43800.      730.00      30.417     8.32763E-02
 STRESS PERIOD TIME 3.15360E+07 5.25600E+05  8760.0      365.00     0.99932    
         TOTAL TIME 1.70415E+09 2.84026E+07 4.73376E+05  19724.      54.001    
1
1
                            STRESS PERIOD NO.   55, LENGTH =   365.0000    
                            -----------------------------------------------

                              NUMBER OF TIME STEPS =    12

                               MULTIPLIER FOR DELT =     1.000

                            INITIAL TIME STEP SIZE =   30.41667    

   1680 WELLS

 REUSING SURF FROM LAST STRESS PERIOD

 REUSING EVTR FROM LAST STRESS PERIOD

 REUSING EXDP FROM LAST STRESS PERIOD



                           RECHARGE
 READING ON UNIT   16 WITH FORMAT: (15F5.0)            


     63 TIME-VARIANT SPECIFIED-HEAD CELLS
 
 SOLVING FOR HEAD 
                                                   Max.-Head-Change                        Max.-Flux-Residual
  Residual-Control   Outer-Iter.   Inner-Iter.     Column Row Layer    Max.-Head-Change    Column Row Layer    Max.-Flux-Residual            L2-New               L2-Old           Solver-Max-Delh
          0                 1          11            65    2     2      -0.9119462912E+02      79   49    1      -0.3315799824E+06      0.2044966803E+07      0.1960877607E+01     -0.9119462912E+02
          0                 2          10            83   52     3       0.4615044208E+01      78   52    2       0.1456952523E+06      0.2555189471E+06      0.2044966803E+07      0.4615044208E+01
          0                 3           6            65    2     2       0.1822343398E+00      22   20    1       0.3359333427E+04      0.4185778203E+04      0.2555189471E+06      0.1822343398E+00
          0                 4           4            65    2     2       0.1020024105E-01      35   31    2       0.1703811489E+02      0.2220225926E+02      0.4185778203E+04      0.1020024105E-01
          0                 5           2            65    2     2       0.5700907759E-03      35   31    2       0.1531719929E+01      0.1877189190E+01      0.2220225926E+02      0.5700907759E-03

    ------------------------------------------------
       NWT REQUIRED            5 OUTER ITERATIONS 
       AND A TOTAL OF         33 INNER ITERATIONS.
    ------------------------------------------------

 NO OUTPUT CONTROL FOR STRESS PERIOD   55   TIME STEP    1
 
 SOLVING FOR HEAD 
                                                   Max.-Head-Change                        Max.-Flux-Residual
  Residual-Control   Outer-Iter.   Inner-Iter.     Column Row Layer    Max.-Head-Change    Column Row Layer    Max.-Flux-Residual            L2-New               L2-Old           Solver-Max-Delh
          0                 1          10            83   52     3      -0.1058693038E+02      85   52    1      -0.2410272020E+06      0.1418891886E+07      0.1877189190E+01     -0.1058693038E+02
          0                 2           9            89   67     2       0.3541653756E+01      89   67    2       0.2568424232E+05      0.1451144672E+06      0.1418891886E+07      0.3541653756E+01
          0                 3           6            89   67     2      -0.3220012569E+00      89   67    2      -0.2677033118E+04      0.4234430077E+04      0.1451144672E+06     -0.3220012569E+00
          0                 4           3            73   14     1       0.8480343301E-03      73   14    1       0.6441507943E+01      0.8868489466E+01      0.4234430077E+04      0.8480343301E-03

    ------------------------------------------------
       NWT REQUIRED            4 OUTER ITERATIONS 
       AND A TOTAL OF         28 INNER ITERATIONS.
    ------------------------------------------------

 NO OUTPUT CONTROL FOR STRESS PERIOD   55   TIME STEP    2
 
 SOLVING FOR HEAD 
                                                   Max.-Head-Change                        Max.-Flux-Residual
  Residual-Control   Outer-Iter.   Inner-Iter.     Column Row Layer    Max.-Head-Change    Column Row Layer    Max.-Flux-Residual            L2-New               L2-Old           Solver-Max-Delh
          0                 1          10            88   51     1      -0.4173591586E+01      76   48    1      -0.1889327439E+06      0.1127132069E+07      0.8868489466E+01     -0.4173591586E+01
          0                 2           9            88   51     1       0.3699685350E+00      76   48    1       0.1877235491E+05      0.1120350563E+06      0.1127132069E+07      0.3699685350E+00
          0                 3           6            73   54     1      -0.9088987134E-01      73   54    1      -0.2505966046E+04      0.2554062922E+04      0.1120350563E+06     -0.9088987134E-01
          0                 4           4            73   54     1      -0.8200319912E-02      73   54    1      -0.2259834875E+03      0.2277438305E+03      0.2554062922E+04     -0.8200319912E-02

    ------------------------------------------------
       NWT REQUIRED            4 OUTER ITERATIONS 
       AND A TOTAL OF         29 INNER ITERATIONS.
    ------------------------------------------------

 NO OUTPUT CONTROL FOR STRESS PERIOD   55   TIME STEP    3
 
 SOLVING FOR HEAD 
                                                   Max.-Head-Change                        Max.-Flux-Residual
  Residual-Control   Outer-Iter.   Inner-Iter.     Column Row Layer    Max.-Head-Change    Column Row Layer    Max.-Flux-Residual            L2-New               L2-Old           Solver-Max-Delh
          0                 1          10            88   51     1      -0.3690365582E+01      76   48    1      -0.1505127712E+06      0.9501518769E+06      0.2277438305E+03     -0.3690365582E+01
          0                 2           9            65    6     2      -0.2150997663E+02      76   48    1       0.1497599097E+05      0.9636212050E+05      0.9501518769E+06     -0.2150997663E+02
          0                 3           6            65    6     2       0.1139723792E+01      65    6    3      -0.1180322790E+04      0.1833495928E+04      0.9636212050E+05      0.1139723792E+01
          0                 4           3            65    6     2       0.4392481457E-01      65    6    2       0.2882029601E+02      0.2955301115E+02      0.1833495928E+04      0.4392481457E-01
          0                 5           2            65    6     2       0.1688830162E-02      65    6    3       0.2388931025E+01      0.2664327870E+01      0.2955301115E+02      0.1688830162E-02

    ------------------------------------------------
       NWT REQUIRED            5 OUTER ITERATIONS 
       AND A TOTAL OF         30 INNER ITERATIONS.
    ------------------------------------------------

 NO OUTPUT CONTROL FOR STRESS PERIOD   55   TIME STEP    4
 
 SOLVING FOR HEAD 
                                                   Max.-Head-Change                        Max.-Flux-Residual
  Residual-Control   Outer-Iter.   Inner-Iter.     Column Row Layer    Max.-Head-Change    Column Row Layer    Max.-Flux-Residual            L2-New               L2-Old           Solver-Max-Delh
          0                 1          10            92   77     2      -0.8446734537E+02      69   47    1      -0.1292714642E+06      0.8313696331E+06      0.2664327870E+01     -0.8446734537E+02
          0                 2           9            92   77     2       0.1352257619E+02      69   47    1       0.1269523494E+05      0.8360693566E+05      0.8313696331E+06      0.1352257619E+02
          0                 3           5            92   77     2       0.6391477802E+00      58   71    1       0.6431962499E+03      0.1037768084E+04      0.8360693566E+05      0.6391477802E+00
          0                 4           2            92   77     2       0.2912917277E-01      92   77    2       0.1758588808E+02      0.2314478574E+02      0.1037768084E+04      0.2912917277E-01
          0                 5           2            65    3     2       0.1466643293E-02      92   77    2       0.8036564947E+00      0.1088458850E+01      0.2314478574E+02      0.1466643293E-02

    ------------------------------------------------
       NWT REQUIRED            5 OUTER ITERATIONS 
       AND A TOTAL OF         28 INNER ITERATIONS.
    ------------------------------------------------

 NO OUTPUT CONTROL FOR STRESS PERIOD   55   TIME STEP    5
 
 SOLVING FOR HEAD 
                                                   Max.-Head-Change                        Max.-Flux-Residual
  Residual-Control   Outer-Iter.   Inner-Iter.     Column Row Layer    Max.-Head-Change    Column Row Layer    Max.-Flux-Residual            L2-New               L2-Old           Solver-Max-Delh
          0                 1          10            65    3     2      -0.1595488485E+02      69   47    1      -0.1157896189E+06      0.7479298774E+06      0.1088458850E+01     -0.1595488485E+02
          0                 2           9            69   21     1      -0.4041038122E+01      69   21    1      -0.2019098550E+05      0.7718027974E+05      0.7479298774E+06     -0.4041038122E+01
          0                 3           6            69   21     1       0.3448873457E+00      69   21    1       0.1897023292E+04      0.2070971214E+04      0.7718027974E+05      0.3448873457E+00
          0                 4           4            65    5     2       0.6979805267E-02      23   21    1      -0.5947914124E+02      0.6272902824E+02      0.2070971214E+04      0.6979805267E-02

    ------------------------------------------------
       NWT REQUIRED            4 OUTER ITERATIONS 
       AND A TOTAL OF         29 INNER ITERATIONS.
    ------------------------------------------------

 NO OUTPUT CONTROL FOR STRESS PERIOD   55   TIME STEP    6
 
 SOLVING FOR HEAD 
                                                   Max.-Head-Change                        Max.-Flux-Residual
  Residual-Control   Outer-Iter.   Inner-Iter.     Column Row Layer    Max.-Head-Change    Column Row Layer    Max.-Flux-Residual            L2-New               L2-Old           Solver-Max-Delh
          0                 1          10            65    5     2      -0.2932023058E+02      69   47    1      -0.1041777863E+06      0.6864852374E+06      0.6272902824E+02     -0.2932023058E+02
          0                 2           9            65    5     2       0.2047158309E+01      69   47    1       0.1027244499E+05      0.6902536107E+05      0.6864852374E+06      0.2047158309E+01
          0                 3           5            65    5     2       0.9137711650E-01      23   21    1       0.6172450836E+03      0.9443106681E+03      0.6902536107E+05      0.9137711650E-01
          0                 4           3            65    5     2       0.4074983665E-02      59   65    1      -0.1825900245E+02      0.1881203672E+02      0.9443106681E+03      0.4074983665E-02

    ------------------------------------------------
       NWT REQUIRED            4 OUTER ITERATIONS 
       AND A TOTAL OF         27 INNER ITERATIONS.
    ------------------------------------------------

 NO OUTPUT CONTROL FOR STRESS PERIOD   55   TIME STEP    7
 
 SOLVING FOR HEAD 
                                                   Max.-Head-Change                        Max.-Flux-Residual
  Residual-Control   Outer-Iter.   Inner-Iter.     Column Row Layer    Max.-Head-Change    Column Row Layer    Max.-Flux-Residual            L2-New               L2-Old           Solver-Max-Delh
          0                 1          10            81   45     1      -0.2676047794E+01      92   52    1      -0.9482720408E+05      0.6392789441E+06      0.1881203672E+02     -0.2676047794E+01
          0                 2           9            61   82     2       0.2750915426E+00      61   82    2       0.1727950006E+05      0.6676391890E+05      0.6392789441E+06      0.2750915426E+00
          0                 3           5            25   23     1       0.5155128070E-02      25   23    1       0.2361584451E+03      0.3062933417E+03      0.6676391890E+05      0.5155128070E-02

    ------------------------------------------------
       NWT REQUIRED            3 OUTER ITERATIONS 
       AND A TOTAL OF         24 INNER ITERATIONS.
    ------------------------------------------------

 NO OUTPUT CONTROL FOR STRESS PERIOD   55   TIME STEP    8
 
 SOLVING FOR HEAD 
                                                   Max.-Head-Change                        Max.-Flux-Residual
  Residual-Control   Outer-Iter.   Inner-Iter.     Column Row Layer    Max.-Head-Change    Column Row Layer    Max.-Flux-Residual            L2-New               L2-Old           Solver-Max-Delh
          0                 1          10            81   45     1      -0.2564688392E+01      92   52    1      -0.8833556837E+05      0.6024069715E+06      0.3062933417E+03     -0.2564688392E+01
          0                 2           9            81   45     1       0.2328352845E+00      44   30    1      -0.9411949253E+04      0.6125502167E+05      0.6024069715E+06      0.2328352845E+00
          0                 3           6            61   82     1       0.1667811588E-01      44   30    1       0.9248900301E+03      0.1209630360E+04      0.6125502167E+05      0.1667811588E-01
          0                 4           3            85   85     2      -0.1687581526E-03      61   82    1       0.6410744488E+00      0.9899045604E+00      0.1209630360E+04     -0.1687581526E-03

    ------------------------------------------------
       NWT REQUIRED            4 OUTER ITERATIONS 
       AND A TOTAL OF         28 INNER ITERATIONS.
    ------------------------------------------------

 NO OUTPUT CONTROL FOR STRESS PERIOD   55   TIME STEP    9
 
 SOLVING FOR HEAD 
                                                   Max.-Head-Change                        Max.-Flux-Residual
  Residual-Control   Outer-Iter.   Inner-Iter.     Column Row Layer    Max.-Head-Change    Column Row Layer    Max.-Flux-Residual            L2-New               L2-Old           Solver-Max-Delh
          0                 1          10            81   45     1      -0.2459495449E+01      92   52    1      -0.8276335324E+05      0.5739667341E+06      0.9899045604E+00     -0.2459495449E+01
          0                 2           9            83   60     1      -0.1814615859E+01      92   52    1       0.8206428148E+04      0.5767961189E+05      0.5739667341E+06     -0.1814615859E+01
          0                 3           6            83   60     1       0.1191136512E+00      42   31    1      -0.3295771947E+04      0.3301986307E+04      0.5767961189E+05      0.1191136512E+00
          0                 4           5            83   60     1       0.3005021657E-02      42   31    1      -0.2967738235E+03      0.2968695469E+03      0.3301986307E+04      0.3005021657E-02

    ------------------------------------------------
       NWT REQUIRED            4 OUTER ITERATIONS 
       AND A TOTAL OF         30 INNER ITERATIONS.
    ------------------------------------------------

 NO OUTPUT CONTROL FOR STRESS PERIOD   55   TIME STEP   10
 
 SOLVING FOR HEAD 
                                                   Max.-Head-Change                        Max.-Flux-Residual
  Residual-Control   Outer-Iter.   Inner-Iter.     Column Row Layer    Max.-Head-Change    Column Row Layer    Max.-Flux-Residual            L2-New               L2-Old           Solver-Max-Delh
          0                 1          10            83   60     1      -0.3386578339E+01      92   52    1      -0.7794135797E+05      0.5507021761E+06      0.2968695469E+03     -0.3386578339E+01
          0                 2           9            56   80     2      -0.1789680261E+01      42   31    1      -0.1454301038E+05      0.5745542005E+05      0.5507021761E+06     -0.1789680261E+01
          0                 3           6            56   80     2       0.1324765904E+00      42   31    1       0.1443431869E+04      0.1638817931E+04      0.5745542005E+05      0.1324765904E+00
          0                 4           4            56   80     1       0.2432363856E-02      18   14    1      -0.3534637418E+02      0.3577620894E+02      0.1638817931E+04      0.2432363856E-02

    ------------------------------------------------
       NWT REQUIRED            4 OUTER ITERATIONS 
       AND A TOTAL OF         29 INNER ITERATIONS.
    ------------------------------------------------

 NO OUTPUT CONTROL FOR STRESS PERIOD   55   TIME STEP   11

 INTERPOLATION FOR HEAD OBS# 1656, ID 2303-55-355  CHANGED BECAUSE AT LEAST ONE
 NEIGHBORING CELL REQUIRED FOR INTERPOLATION IS DRY OR INACTIVE (OBS2BAS7SE)

 INTERPOLATION FOR HEAD OBS# 2182, ID 2355-55-343  CHANGED BECAUSE AT LEAST ONE
 NEIGHBORING CELL REQUIRED FOR INTERPOLATION IS DRY OR INACTIVE (OBS2BAS7SE)
 
 SOLVING FOR HEAD 
                                                   Max.-Head-Change                        Max.-Flux-Residual
  Residual-Control   Outer-Iter.   Inner-Iter.     Column Row Layer    Max.-Head-Change    Column Row Layer    Max.-Flux-Residual            L2-New               L2-Old           Solver-Max-Delh
          0                 1          10            81   45     1      -0.2266000642E+01      92   52    1      -0.7373561862E+05      0.5314716337E+06      0.3577620894E+02     -0.2266000642E+01
          0                 2           9            72   15     2       0.4337953520E+00      58   61    2       0.1745023017E+05      0.6047125801E+05      0.5314716337E+06      0.4337953520E+00
          0                 3           5            71   56     1      -0.5061045324E-01      71   56    1      -0.1377531048E+04      0.1390510677E+04      0.6047125801E+05     -0.5061045324E-01
          0                 4           4            71   56     1      -0.4560793109E-02      71   56    1      -0.1240991065E+03      0.1244425545E+03      0.1390510677E+04     -0.4560793109E-02

    ------------------------------------------------
       NWT REQUIRED            4 OUTER ITERATIONS 
       AND A TOTAL OF         28 INNER ITERATIONS.
    ------------------------------------------------

 OUTPUT CONTROL FOR STRESS PERIOD   55   TIME STEP   12
    SAVE BUDGET
 UBDSV1 SAVING "         STORAGE" ON UNIT  39 AT TIME STEP 12, STRESS PERIOD  55
 UBDSV2 SAVING "   CONSTANT HEAD" ON UNIT  39 AT TIME STEP 12, STRESS PERIOD  55
 UBDSV1 SAVING "FLOW RIGHT FACE " ON UNIT  39 AT TIME STEP 12, STRESS PERIOD  55
 UBDSV1 SAVING "FLOW FRONT FACE " ON UNIT  39 AT TIME STEP 12, STRESS PERIOD  55
 UBDSV1 SAVING "FLOW LOWER FACE " ON UNIT  39 AT TIME STEP 12, STRESS PERIOD  55
 UBDSV4 SAVING "           WELLS" ON UNIT  39 AT TIME STEP 12, STRESS PERIOD  55
 UBDSV3 SAVING "              ET" ON UNIT  39 AT TIME STEP 12, STRESS PERIOD  55
 UBDSV3 SAVING "        RECHARGE" ON UNIT  39 AT TIME STEP 12, STRESS PERIOD  55

 INTERPOLATION FOR HEAD OBS#  169, ID 3368-56-25   CHANGED BECAUSE AT LEAST ONE
 NEIGHBORING CELL REQUIRED FOR INTERPOLATION IS DRY OR INACTIVE (OBS2BAS7SE)

 INTERPOLATION FOR HEAD OBS#  196, ID 3228-56-20   CHANGED BECAUSE AT LEAST ONE
 NEIGHBORING CELL REQUIRED FOR INTERPOLATION IS DRY OR INACTIVE (OBS2BAS7SE)

 INTERPOLATION FOR HEAD OBS#  253, ID 3260-56-26   CHANGED BECAUSE AT LEAST ONE
 NEIGHBORING CELL REQUIRED FOR INTERPOLATION IS DRY OR INACTIVE (OBS2BAS7SE)

 INTERPOLATION FOR HEAD OBS#  637, ID 3014-56-24   CHANGED BECAUSE AT LEAST ONE
 NEIGHBORING CELL REQUIRED FOR INTERPOLATION IS DRY OR INACTIVE (OBS2BAS7SE)

 INTERPOLATION FOR HEAD OBS#  650, ID 3055-56-19   CHANGED BECAUSE AT LEAST ONE
 NEIGHBORING CELL REQUIRED FOR INTERPOLATION IS DRY OR INACTIVE (OBS2BAS7SE)

 INTERPOLATION FOR HEAD OBS#  774, ID 3008-56-26   CHANGED BECAUSE AT LEAST ONE
 NEIGHBORING CELL REQUIRED FOR INTERPOLATION IS DRY OR INACTIVE (OBS2BAS7SE)

 INTERPOLATION FOR HEAD OBS# 1334, ID 2852-56-19   CHANGED BECAUSE AT LEAST ONE
 NEIGHBORING CELL REQUIRED FOR INTERPOLATION IS DRY OR INACTIVE (OBS2BAS7SE)

 INTERPOLATION FOR HEAD OBS# 1339, ID 2869-56-24   CHANGED BECAUSE AT LEAST ONE
 NEIGHBORING CELL REQUIRED FOR INTERPOLATION IS DRY OR INACTIVE (OBS2BAS7SE)

 INTERPOLATION FOR HEAD OBS# 1402, ID 2840-56-19   CHANGED BECAUSE AT LEAST ONE
 NEIGHBORING CELL REQUIRED FOR INTERPOLATION IS DRY OR INACTIVE (OBS2BAS7SE)

 INTERPOLATION FOR HEAD OBS# 1741, ID 2618-56-23   CHANGED BECAUSE AT LEAST ONE
 NEIGHBORING CELL REQUIRED FOR INTERPOLATION IS DRY OR INACTIVE (OBS2BAS7SE)

 INTERPOLATION FOR HEAD OBS# 1833, ID 1908-56-18   CHANGED BECAUSE AT LEAST ONE
 NEIGHBORING CELL REQUIRED FOR INTERPOLATION IS DRY OR INACTIVE (OBS2BAS7SE)

 INTERPOLATION FOR HEAD OBS# 1867, ID 2606-56-26   CHANGED BECAUSE AT LEAST ONE
 NEIGHBORING CELL REQUIRED FOR INTERPOLATION IS DRY OR INACTIVE (OBS2BAS7SE)

 INTERPOLATION FOR HEAD OBS# 2525, ID 2243-56-25   CHANGED BECAUSE AT LEAST ONE
 NEIGHBORING CELL REQUIRED FOR INTERPOLATION IS DRY OR INACTIVE (OBS2BAS7SE)

 INTERPOLATION FOR HEAD OBS# 3194, ID 2443-56-20   CHANGED BECAUSE AT LEAST ONE
 NEIGHBORING CELL REQUIRED FOR INTERPOLATION IS DRY OR INACTIVE (OBS2BAS7SE)

 INTERPOLATION FOR HEAD OBS# 5397, ID 1705-56-16   CHANGED BECAUSE AT LEAST ONE
 NEIGHBORING CELL REQUIRED FOR INTERPOLATION IS DRY OR INACTIVE (OBS2BAS7SE)

 INTERPOLATION FOR HEAD OBS# 5401, ID 1530-56-16   CHANGED BECAUSE AT LEAST ONE
 NEIGHBORING CELL REQUIRED FOR INTERPOLATION IS DRY OR INACTIVE (OBS2BAS7SE)

 INTERPOLATION FOR HEAD OBS# 6240, ID 1164-56-17   CHANGED BECAUSE AT LEAST ONE
 NEIGHBORING CELL REQUIRED FOR INTERPOLATION IS DRY OR INACTIVE (OBS2BAS7SE)

 INTERPOLATION FOR HEAD OBS# 7374, ID 451-56-17    CHANGED BECAUSE AT LEAST ONE
 NEIGHBORING CELL REQUIRED FOR INTERPOLATION IS DRY OR INACTIVE (OBS2BAS7SE)

 INTERPOLATION FOR HEAD OBS# 7527, ID 269-56-10    CHANGED BECAUSE AT LEAST ONE
 NEIGHBORING CELL REQUIRED FOR INTERPOLATION IS DRY OR INACTIVE (OBS2BAS7SE)

 INTERPOLATION FOR HEAD OBS# 7557, ID 230-56-10    CHANGED BECAUSE AT LEAST ONE
 NEIGHBORING CELL REQUIRED FOR INTERPOLATION IS DRY OR INACTIVE (OBS2BAS7SE)

 INTERPOLATION FOR HEAD OBS# 7776, ID 178-56-11    CHANGED BECAUSE AT LEAST ONE
 NEIGHBORING CELL REQUIRED FOR INTERPOLATION IS DRY OR INACTIVE (OBS2BAS7SE)
1
  VOLUMETRIC BUDGET FOR ENTIRE MODEL AT END OF TIME STEP   12, STRESS PERIOD  55
  ------------------------------------------------------------------------------

     CUMULATIVE VOLUMES      L**3       RATES FOR THIS TIME STEP      L**3/T
     ------------------                 ------------------------

           IN:                                      IN:
           ---                                      ---
             STORAGE     =350769676288.0000               STORAGE     =    19000072.0000
       CONSTANT HEAD     = 35104210944.0000         CONSTANT HEAD     =     2616270.2500
               WELLS     = 24621426688.0000                 WELLS     =     1225642.0000
                  ET     =           0.0000                    ET     =           0.0000
            RECHARGE     =414391304192.0000              RECHARGE     =    17889016.0000

                TOTAL IN =824886558720.0000                  TOTAL IN =    40731000.0000

          OUT:                                     OUT:
          ----                                     ----
             STORAGE     = 80423116800.0000               STORAGE     =     2132456.5000
       CONSTANT HEAD     = 64239706112.0000         CONSTANT HEAD     =     2269716.7500
               WELLS     =659346227200.0000                 WELLS     =    35104964.0000
                  ET     = 20876963840.0000                    ET     =     1223877.6250
            RECHARGE     =           0.0000              RECHARGE     =           0.0000

               TOTAL OUT =824885968896.0000                 TOTAL OUT =    40731012.0000

                IN - OUT =      589824.0000                  IN - OUT =         -12.0000

     PERCENT DISCREPANCY =           0.00         PERCENT DISCREPANCY =          -0.00






         TIME SUMMARY AT END OF TIME STEP   12 IN STRESS PERIOD   55
                    SECONDS     MINUTES      HOURS       DAYS        YEARS
                    -----------------------------------------------------------
   TIME STEP LENGTH 2.62800E+06  43800.      730.00      30.417     8.32763E-02
 STRESS PERIOD TIME 3.15360E+07 5.25600E+05  8760.0      365.00     0.99932    
         TOTAL TIME 1.73569E+09 2.89281E+07 4.82136E+05  20089.      55.001    
1
1
                            STRESS PERIOD NO.   56, LENGTH =   365.0000    
                            -----------------------------------------------

                              NUMBER OF TIME STEPS =    12

                               MULTIPLIER FOR DELT =     1.000

                            INITIAL TIME STEP SIZE =   30.41667    

   1714 WELLS

 REUSING SURF FROM LAST STRESS PERIOD

 REUSING EVTR FROM LAST STRESS PERIOD

 REUSING EXDP FROM LAST STRESS PERIOD



                           RECHARGE
 READING ON UNIT   16 WITH FORMAT: (15F5.0)            


     63 TIME-VARIANT SPECIFIED-HEAD CELLS
 
 SOLVING FOR HEAD 
                                                   Max.-Head-Change                        Max.-Flux-Residual
  Residual-Control   Outer-Iter.   Inner-Iter.     Column Row Layer    Max.-Head-Change    Column Row Layer    Max.-Flux-Residual            L2-New               L2-Old           Solver-Max-Delh
          0                 1          11            84   50     3       0.8718716227E+02      54   47    2      -0.4112082240E+06      0.1072857985E+07      0.1244425545E+03      0.8718716227E+02
          0                 2           9            84   56     3       0.8264519595E+01      61   62    2       0.1682840360E+06      0.2128330152E+06      0.1072857985E+07      0.8264519595E+01
          0                 3           6            88   67     1       0.1348636718E+00      61   62    2      -0.2975013554E+04      0.4188809213E+04      0.2128330152E+06      0.1348636718E+00
          0                 4           4            61   62     2      -0.5063484495E-02      61   62    2      -0.2516048533E+03      0.2834953296E+03      0.4188809213E+04     -0.5063484495E-02

    ------------------------------------------------
       NWT REQUIRED            4 OUTER ITERATIONS 
       AND A TOTAL OF         30 INNER ITERATIONS.
    ------------------------------------------------

 NO OUTPUT CONTROL FOR STRESS PERIOD   56   TIME STEP    1

 INTERPOLATION FOR HEAD OBS# 3607, ID 1370-56-31   CHANGED BECAUSE AT LEAST ONE
 NEIGHBORING CELL REQUIRED FOR INTERPOLATION IS DRY OR INACTIVE (OBS2BAS7SE)

 INTERPOLATION FOR HEAD OBS# 3696, ID 1479-56-34   CHANGED BECAUSE AT LEAST ONE
 NEIGHBORING CELL REQUIRED FOR INTERPOLATION IS DRY OR INACTIVE (OBS2BAS7SE)

 INTERPOLATION FOR HEAD OBS# 3753, ID 1427-56-33   CHANGED BECAUSE AT LEAST ONE
 NEIGHBORING CELL REQUIRED FOR INTERPOLATION IS DRY OR INACTIVE (OBS2BAS7SE)

 INTERPOLATION FOR HEAD OBS# 3770, ID 1405-56-33   CHANGED BECAUSE AT LEAST ONE
 NEIGHBORING CELL REQUIRED FOR INTERPOLATION IS DRY OR INACTIVE (OBS2BAS7SE)
 
 SOLVING FOR HEAD 
                                                   Max.-Head-Change                        Max.-Flux-Residual
  Residual-Control   Outer-Iter.   Inner-Iter.     Column Row Layer    Max.-Head-Change    Column Row Layer    Max.-Flux-Residual            L2-New               L2-Old           Solver-Max-Delh
          0                 1          10            84   56     3      -0.1674016211E+02      60   62    2      -0.2306758639E+06      0.7069490375E+06      0.2834953296E+03     -0.1674016211E+02
          0                 2           9            84   56     3       0.1521091785E+01      60   62    2       0.2251704753E+05      0.7292079446E+05      0.7069490375E+06      0.1521091785E+01
          0                 3           6            73   55     1       0.8693445977E-01      60   53    1       0.1019363764E+04      0.1595798364E+04      0.7292079446E+05      0.8693445977E-01
          0                 4           3            73   55     1       0.2818936773E-03      22   36    2      -0.2286548961E+01      0.4082147234E+01      0.1595798364E+04      0.2818936773E-03

    ------------------------------------------------
       NWT REQUIRED            4 OUTER ITERATIONS 
       AND A TOTAL OF         28 INNER ITERATIONS.
    ------------------------------------------------

 NO OUTPUT CONTROL FOR STRESS PERIOD   56   TIME STEP    2
 
 SOLVING FOR HEAD 
                                                   Max.-Head-Change                        Max.-Flux-Residual
  Residual-Control   Outer-Iter.   Inner-Iter.     Column Row Layer    Max.-Head-Change    Column Row Layer    Max.-Flux-Residual            L2-New               L2-Old           Solver-Max-Delh
          0                 1          10            81   55     3      -0.5220737930E+01      60   62    2      -0.1638212281E+06      0.6227783266E+06      0.4082147234E+01     -0.5220737930E+01
          0                 2           9            81   52     1      -0.1602854876E+01      54   47    2       0.2517034871E+05      0.6783616501E+05      0.6227783266E+06     -0.1602854876E+01
          0                 3           5            81   52     1       0.1273859396E+00      81   52    1       0.4879050004E+03      0.6203663175E+03      0.6783616501E+05      0.1273859396E+00
          0                 4           2            81   52     1       0.1468630971E-02      81   52    1       0.5455790045E+01      0.5910406325E+01      0.6203663175E+03      0.1468630971E-02

    ------------------------------------------------
       NWT REQUIRED            4 OUTER ITERATIONS 
       AND A TOTAL OF         26 INNER ITERATIONS.
    ------------------------------------------------

 NO OUTPUT CONTROL FOR STRESS PERIOD   56   TIME STEP    3
 
 SOLVING FOR HEAD 
                                                   Max.-Head-Change                        Max.-Flux-Residual
  Residual-Control   Outer-Iter.   Inner-Iter.     Column Row Layer    Max.-Head-Change    Column Row Layer    Max.-Flux-Residual            L2-New               L2-Old           Solver-Max-Delh
          0                 1          10            56   99     3       0.3785946860E+01      60   62    2      -0.1246473939E+06      0.5727184293E+06      0.5910406325E+01      0.3785946860E+01
          0                 2           9            70   19     1      -0.5002641568E+00      60   62    2       0.1228214172E+05      0.5970986971E+05      0.5727184293E+06     -0.5002641568E+00
          0                 3           5            70   19     1       0.4361646122E-01      70   19    1       0.3862592840E+03      0.4239282552E+03      0.5970986971E+05      0.4361646122E-01
          0                 4           2            85   85     2      -0.1713524484E-03      61   60    2      -0.1777545452E+01      0.2269967693E+01      0.4239282552E+03     -0.1713524484E-03

    ------------------------------------------------
       NWT REQUIRED            4 OUTER ITERATIONS 
       AND A TOTAL OF         26 INNER ITERATIONS.
    ------------------------------------------------

 NO OUTPUT CONTROL FOR STRESS PERIOD   56   TIME STEP    4
 
 SOLVING FOR HEAD 
                                                   Max.-Head-Change                        Max.-Flux-Residual
  Residual-Control   Outer-Iter.   Inner-Iter.     Column Row Layer    Max.-Head-Change    Column Row Layer    Max.-Flux-Residual            L2-New               L2-Old           Solver-Max-Delh
          0                 1          10            56   99     3       0.3340726626E+01      60   62    2      -0.1007080078E+06      0.5415469061E+06      0.2269967693E+01      0.3340726626E+01
          0                 2           9            66   43     2      -0.2058394004E+01      61   63    2       0.1529387883E+05      0.5720163060E+05      0.5415469061E+06     -0.2058394004E+01
          0                 3           6            71   55     1      -0.9919735093E-01      71   55    1      -0.2674362948E+04      0.2910985832E+04      0.5720163060E+05     -0.9919735093E-01
          0                 4           4            71   55     1      -0.8947919270E-02      71   55    1      -0.2411244343E+03      0.2412025988E+03      0.2910985832E+04     -0.8947919270E-02

    ------------------------------------------------
       NWT REQUIRED            4 OUTER ITERATIONS 
       AND A TOTAL OF         29 INNER ITERATIONS.
    ------------------------------------------------

 NO OUTPUT CONTROL FOR STRESS PERIOD   56   TIME STEP    5
 
 SOLVING FOR HEAD 
                                                   Max.-Head-Change                        Max.-Flux-Residual
  Residual-Control   Outer-Iter.   Inner-Iter.     Column Row Layer    Max.-Head-Change    Column Row Layer    Max.-Flux-Residual            L2-New               L2-Old           Solver-Max-Delh
          0                 1          10            56   99     3       0.2954608112E+01      60   62    2      -0.8535663786E+05      0.5203171578E+06      0.2412025988E+03      0.2954608112E+01
          0                 2           9            71   55     1      -0.1350809363E+01      60   62    2       0.8443164399E+04      0.5362531377E+05      0.5203171578E+06     -0.1350809363E+01
          0                 3           5            55   80     2      -0.3269050160E+00      55   80    2      -0.9364068865E+04      0.9409500214E+04      0.5362531377E+05     -0.3269050160E+00
          0                 4           3            55   80     1      -0.3055312269E-01      55   80    2      -0.8436353221E+03      0.8437271356E+03      0.9409500214E+04     -0.3055312269E-01
          0                 5           2            55   80     1      -0.2868024147E-02      55   80    2      -0.7585008598E+02      0.7587329328E+02      0.8437271356E+03     -0.2868024147E-02

    ------------------------------------------------
       NWT REQUIRED            5 OUTER ITERATIONS 
       AND A TOTAL OF         29 INNER ITERATIONS.
    ------------------------------------------------

 NO OUTPUT CONTROL FOR STRESS PERIOD   56   TIME STEP    6
 
 SOLVING FOR HEAD 
                                                   Max.-Head-Change                        Max.-Flux-Residual
  Residual-Control   Outer-Iter.   Inner-Iter.     Column Row Layer    Max.-Head-Change    Column Row Layer    Max.-Flux-Residual            L2-New               L2-Old           Solver-Max-Delh
          0                 1          10            56   99     3       0.2617005543E+01      60   62    2      -0.7486273357E+05      0.5050817190E+06      0.7587329328E+02      0.2617005543E+01
          0                 2           9            55   80     2      -0.9515960971E+01      60   71    2       0.1879994202E+05      0.5489146766E+05      0.5050817190E+06     -0.9515960971E+01
          0                 3           5            55   80     1      -0.2600290558E+00      55   80    1      -0.2894310757E+03      0.4220333998E+03      0.5489146766E+05     -0.2600290558E+00
          0                 4           2            55   80     2      -0.7562431687E-02      55   80    2      -0.2449804145E+02      0.3293527646E+02      0.4220333998E+03     -0.7562431687E-02

    ------------------------------------------------
       NWT REQUIRED            4 OUTER ITERATIONS 
       AND A TOTAL OF         26 INNER ITERATIONS.
    ------------------------------------------------

 NO OUTPUT CONTROL FOR STRESS PERIOD   56   TIME STEP    7
 
 SOLVING FOR HEAD 
                                                   Max.-Head-Change                        Max.-Flux-Residual
  Residual-Control   Outer-Iter.   Inner-Iter.     Column Row Layer    Max.-Head-Change    Column Row Layer    Max.-Flux-Residual            L2-New               L2-Old           Solver-Max-Delh
          0                 1          10            56   99     3       0.2320980839E+01      91   67    1       0.7022068679E+05      0.4931203619E+06      0.3293527646E+02      0.2320980839E+01
          0                 2           9            24   83     2      -0.7962467327E+00      59   61    1      -0.2211748030E+05      0.5529116579E+05      0.4931203619E+06     -0.7962467327E+00
          0                 3           5            59   61     1       0.3696914472E-01      59   61    1       0.2190317189E+04      0.2316584016E+04      0.5529116579E+05      0.3696914472E-01
          0                 4           2            24   83     2      -0.1359209953E-02      59   61    1       0.1516441464E+01      0.1980647210E+01      0.2316584016E+04     -0.1359209953E-02

    ------------------------------------------------
       NWT REQUIRED            4 OUTER ITERATIONS 
       AND A TOTAL OF         26 INNER ITERATIONS.
    ------------------------------------------------

 NO OUTPUT CONTROL FOR STRESS PERIOD   56   TIME STEP    8
 
 SOLVING FOR HEAD 
                                                   Max.-Head-Change                        Max.-Flux-Residual
  Residual-Control   Outer-Iter.   Inner-Iter.     Column Row Layer    Max.-Head-Change    Column Row Layer    Max.-Flux-Residual            L2-New               L2-Old           Solver-Max-Delh
          0                 1          10            56   99     3       0.2060167512E+01      91   67    1       0.6797368464E+05      0.4826122446E+06      0.1980647210E+01      0.2060167512E+01
          0                 2           9            72   15     1      -0.1492531978E+01      60   60    1      -0.1322284290E+05      0.5161329832E+05      0.4826122446E+06     -0.1492531978E+01
          0                 3           5            72   15     1       0.1286658967E+00      60   60    1       0.1300805707E+04      0.1589714689E+04      0.5161329832E+05      0.1286658967E+00
          0                 4           2            72   15     1       0.6040260377E-03      72   15    1       0.3550852623E+01      0.3787688402E+01      0.1589714689E+04      0.6040260377E-03

    ------------------------------------------------
       NWT REQUIRED            4 OUTER ITERATIONS 
       AND A TOTAL OF         26 INNER ITERATIONS.
    ------------------------------------------------

 NO OUTPUT CONTROL FOR STRESS PERIOD   56   TIME STEP    9
 
 SOLVING FOR HEAD 
                                                   Max.-Head-Change                        Max.-Flux-Residual
  Residual-Control   Outer-Iter.   Inner-Iter.     Column Row Layer    Max.-Head-Change    Column Row Layer    Max.-Flux-Residual            L2-New               L2-Old           Solver-Max-Delh
          0                 1          10            56   99     3       0.1829570733E+01      91   67    1       0.6585682483E+05      0.4745148223E+06      0.3787688402E+01      0.1829570733E+01
          0                 2           9            56   99     3      -0.1642676180E+00      59  102    2       0.8749005564E+04      0.4831642615E+05      0.4745148223E+06     -0.1642676180E+00
          0                 3           5            32   32     2      -0.3081223003E-02      32   32    2      -0.1744920609E+03      0.2037165063E+03      0.4831642615E+05     -0.3081223003E-02

    ------------------------------------------------
       NWT REQUIRED            3 OUTER ITERATIONS 
       AND A TOTAL OF         24 INNER ITERATIONS.
    ------------------------------------------------

 NO OUTPUT CONTROL FOR STRESS PERIOD   56   TIME STEP   10
 
 SOLVING FOR HEAD 
                                                   Max.-Head-Change                        Max.-Flux-Residual
  Residual-Control   Outer-Iter.   Inner-Iter.     Column Row Layer    Max.-Head-Change    Column Row Layer    Max.-Flux-Residual            L2-New               L2-Old           Solver-Max-Delh
          0                 1          10            91   67     1       0.1749961731E+01      91   67    1       0.6386174887E+05      0.4681958753E+06      0.2037165063E+03      0.1749961731E+01
          0                 2           9            61   64     2       0.3162934068E+00      61   64    2       0.1606849492E+05      0.5079452609E+05      0.4681958753E+06      0.3162934068E+00
          0                 3           5            85   85     2      -0.1152304131E-02      61   57    2       0.3227895838E+02      0.4347299155E+02      0.5079452609E+05     -0.1152304131E-02

    ------------------------------------------------
       NWT REQUIRED            3 OUTER ITERATIONS 
       AND A TOTAL OF         24 INNER ITERATIONS.
    ------------------------------------------------

 NO OUTPUT CONTROL FOR STRESS PERIOD   56   TIME STEP   11
 
 SOLVING FOR HEAD 
                                                   Max.-Head-Change                        Max.-Flux-Residual
  Residual-Control   Outer-Iter.   Inner-Iter.     Column Row Layer    Max.-Head-Change    Column Row Layer    Max.-Flux-Residual            L2-New               L2-Old           Solver-Max-Delh
          0                 1          10            91   67     1       0.1699966275E+01      91   67    1       0.6198294402E+05      0.4615027714E+06      0.4347299155E+02      0.1699966275E+01
          0                 2           9            61   64     1      -0.2646595801E+00      61   57    2       0.1417182757E+05      0.5352832020E+05      0.4615027714E+06     -0.2646595801E+00
          0                 3           5            63  106     1      -0.2736267080E-01      58   62    1      -0.1434041776E+04      0.2179767851E+04      0.5352832020E+05     -0.2736267080E-01
          0                 4           3            63  106     1      -0.2464697471E-02      58   62    1      -0.1291136110E+03      0.1763599038E+03      0.2179767851E+04     -0.2464697471E-02

    ------------------------------------------------
       NWT REQUIRED            4 OUTER ITERATIONS 
       AND A TOTAL OF         27 INNER ITERATIONS.
    ------------------------------------------------

 OUTPUT CONTROL FOR STRESS PERIOD   56   TIME STEP   12
    SAVE BUDGET
    SAVE HEAD FOR LAYERS:   1  2  3
 UBDSV1 SAVING "         STORAGE" ON UNIT  39 AT TIME STEP 12, STRESS PERIOD  56
 UBDSV2 SAVING "   CONSTANT HEAD" ON UNIT  39 AT TIME STEP 12, STRESS PERIOD  56
 UBDSV1 SAVING "FLOW RIGHT FACE " ON UNIT  39 AT TIME STEP 12, STRESS PERIOD  56
 UBDSV1 SAVING "FLOW FRONT FACE " ON UNIT  39 AT TIME STEP 12, STRESS PERIOD  56
 UBDSV1 SAVING "FLOW LOWER FACE " ON UNIT  39 AT TIME STEP 12, STRESS PERIOD  56
 UBDSV4 SAVING "           WELLS" ON UNIT  39 AT TIME STEP 12, STRESS PERIOD  56
 UBDSV3 SAVING "              ET" ON UNIT  39 AT TIME STEP 12, STRESS PERIOD  56
 UBDSV3 SAVING "        RECHARGE" ON UNIT  39 AT TIME STEP 12, STRESS PERIOD  56

 HEAD WILL BE SAVED ON UNIT   31 AT END OF TIME STEP   12, STRESS PERIOD   56
1
  VOLUMETRIC BUDGET FOR ENTIRE MODEL AT END OF TIME STEP   12, STRESS PERIOD  56
  ------------------------------------------------------------------------------

     CUMULATIVE VOLUMES      L**3       RATES FOR THIS TIME STEP      L**3/T
     ------------------                 ------------------------

           IN:                                      IN:
           ---                                      ---
             STORAGE     =357708201984.0000               STORAGE     =    18298444.0000
       CONSTANT HEAD     = 36063080448.0000         CONSTANT HEAD     =     2619345.0000
               WELLS     = 25068783616.0000                 WELLS     =     1225642.0000
                  ET     =           0.0000                    ET     =           0.0000
            RECHARGE     =422038568960.0000              RECHARGE     =    20951054.0000

                TOTAL IN =840878653440.0000                  TOTAL IN =    43094484.0000

          OUT:                                     OUT:
          ----                                     ----
             STORAGE     = 81623990272.0000               STORAGE     =     2582078.2500
       CONSTANT HEAD     = 65058050048.0000         CONSTANT HEAD     =     2227931.7500
               WELLS     =672857063424.0000                 WELLS     =    37013612.0000
                  ET     = 21338828800.0000                    ET     =     1270886.5000
            RECHARGE     =           0.0000              RECHARGE     =           0.0000

               TOTAL OUT =840877932544.0000                 TOTAL OUT =    43094512.0000

                IN - OUT =      720896.0000                  IN - OUT =         -28.0000

     PERCENT DISCREPANCY =           0.00         PERCENT DISCREPANCY =          -0.00






         TIME SUMMARY AT END OF TIME STEP   12 IN STRESS PERIOD   56
                    SECONDS     MINUTES      HOURS       DAYS        YEARS
                    -----------------------------------------------------------
   TIME STEP LENGTH 2.62800E+06  43800.      730.00      30.417     8.32763E-02
 STRESS PERIOD TIME 3.15360E+07 5.25600E+05  8760.0      365.00     0.99932    
         TOTAL TIME 1.76722E+09 2.94537E+07 4.90896E+05  20454.      56.000    
1
1
                            STRESS PERIOD NO.   57, LENGTH =   366.0000    
                            -----------------------------------------------

                              NUMBER OF TIME STEPS =    12

                               MULTIPLIER FOR DELT =     1.000

                            INITIAL TIME STEP SIZE =   30.50000    

   1717 WELLS

 REUSING SURF FROM LAST STRESS PERIOD

 REUSING EVTR FROM LAST STRESS PERIOD

 REUSING EXDP FROM LAST STRESS PERIOD



                           RECHARGE
 READING ON UNIT   16 WITH FORMAT: (15F5.0)            


     63 TIME-VARIANT SPECIFIED-HEAD CELLS
 
 SOLVING FOR HEAD 
                                                   Max.-Head-Change                        Max.-Flux-Residual
  Residual-Control   Outer-Iter.   Inner-Iter.     Column Row Layer    Max.-Head-Change    Column Row Layer    Max.-Flux-Residual            L2-New               L2-Old           Solver-Max-Delh
          0                 1          11            87   54     3      -0.3756501667E+02      54   47    2       0.3279830890E+06      0.1158582255E+07      0.1763599038E+03     -0.3756501667E+02
          0                 2          10            87   54     3       0.3787669771E+01      24   22    1      -0.6348341187E+05      0.1486218363E+06      0.1158582255E+07      0.3787669771E+01
          0                 3           7            23   48     2      -0.1546123661E+00      23   48    2      -0.3764624570E+04      0.4539955608E+04      0.1486218363E+06     -0.1546123661E+00
          0                 4           6            23   48     2      -0.1400704182E-01      23   48    2      -0.3406726167E+03      0.3418985582E+03      0.4539955608E+04     -0.1400704182E-01
          0                 5           5            23   48     2      -0.1260156987E-02      23   48    2      -0.3064177937E+02      0.3074667633E+02      0.3418985582E+03     -0.1260156987E-02

    ------------------------------------------------
       NWT REQUIRED            5 OUTER ITERATIONS 
       AND A TOTAL OF         39 INNER ITERATIONS.
    ------------------------------------------------

 NO OUTPUT CONTROL FOR STRESS PERIOD   57   TIME STEP    1
 
 SOLVING FOR HEAD 
                                                   Max.-Head-Change                        Max.-Flux-Residual
  Residual-Control   Outer-Iter.   Inner-Iter.     Column Row Layer    Max.-Head-Change    Column Row Layer    Max.-Flux-Residual            L2-New               L2-Old           Solver-Max-Delh
          0                 1          10            56   99     3       0.7024260491E+01      56   99    3       0.1674118167E+06      0.8806941325E+06      0.3074667633E+02      0.7024260491E+01
          0                 2           9            23   48     2      -0.2091601095E+01      59   62    2       0.2924236902E+05      0.9796268137E+05      0.8806941325E+06     -0.2091601095E+01
          0                 3           7            23   48     2       0.1837036185E+00      58   64    1      -0.2928948407E+04      0.3246126677E+04      0.9796268137E+05      0.1837036185E+00
          0                 4           4            58   64     1      -0.3065767243E-02      58   64    1      -0.2638247248E+03      0.2698077984E+03      0.3246126677E+04     -0.3065767243E-02

    ------------------------------------------------
       NWT REQUIRED            4 OUTER ITERATIONS 
       AND A TOTAL OF         30 INNER ITERATIONS.
    ------------------------------------------------

 NO OUTPUT CONTROL FOR STRESS PERIOD   57   TIME STEP    2
 
 SOLVING FOR HEAD 
                                                   Max.-Head-Change                        Max.-Flux-Residual
  Residual-Control   Outer-Iter.   Inner-Iter.     Column Row Layer    Max.-Head-Change    Column Row Layer    Max.-Flux-Residual            L2-New               L2-Old           Solver-Max-Delh
          0                 1          11            56   99     3       0.6160793646E+01      56   99    3       0.1462178623E+06      0.7888529523E+06      0.2698077984E+03      0.6160793646E+01
          0                 2           9            79   70     1      -0.1645176344E+01      59   62    1      -0.2988089610E+05      0.8703748543E+05      0.7888529523E+06     -0.1645176344E+01
          0                 3           6            79   70     1       0.1381682624E+00      59   62    1       0.2959038266E+04      0.3932415831E+04      0.8703748543E+05      0.1381682624E+00
          0                 4           4            57  104     1      -0.1940485065E-02      51   43    1      -0.1100550722E+03      0.1294163599E+03      0.3932415831E+04     -0.1940485065E-02

    ------------------------------------------------
       NWT REQUIRED            4 OUTER ITERATIONS 
       AND A TOTAL OF         30 INNER ITERATIONS.
    ------------------------------------------------

 NO OUTPUT CONTROL FOR STRESS PERIOD   57   TIME STEP    3
 
 SOLVING FOR HEAD 
                                                   Max.-Head-Change                        Max.-Flux-Residual
  Residual-Control   Outer-Iter.   Inner-Iter.     Column Row Layer    Max.-Head-Change    Column Row Layer    Max.-Flux-Residual            L2-New               L2-Old           Solver-Max-Delh
          0                 1          11            56   99     3       0.5420226578E+01      56   99    3       0.1282506999E+06      0.7370323890E+06      0.1294163599E+03      0.5420226578E+01
          0                 2           9            68   52     1      -0.1269436754E+01      88   51    1       0.1484051217E+05      0.7958024505E+05      0.7370323890E+06     -0.1269436754E+01
          0                 3           6            68   52     1       0.1114528965E+00      68   52    1       0.1063931171E+04      0.1641029114E+04      0.7958024505E+05      0.1114528965E+00
          0                 4           4            52   43     2      -0.1080745317E-02      52   43    2      -0.4003841527E+02      0.4164645361E+02      0.1641029114E+04     -0.1080745317E-02

    ------------------------------------------------
       NWT REQUIRED            4 OUTER ITERATIONS 
       AND A TOTAL OF         30 INNER ITERATIONS.
    ------------------------------------------------

 NO OUTPUT CONTROL FOR STRESS PERIOD   57   TIME STEP    4
 
 SOLVING FOR HEAD 
                                                   Max.-Head-Change                        Max.-Flux-Residual
  Residual-Control   Outer-Iter.   Inner-Iter.     Column Row Layer    Max.-Head-Change    Column Row Layer    Max.-Flux-Residual            L2-New               L2-Old           Solver-Max-Delh
          0                 1          11            56   99     3       0.4789980157E+01      56   99    3       0.1129140877E+06      0.7017505955E+06      0.4164645361E+02      0.4789980157E+01
          0                 2           9            56   99     3      -0.4322766062E+00      56   99    3      -0.1134009911E+05      0.7103848937E+05      0.7017505955E+06     -0.4322766062E+00
          0                 3           5            26   20     1       0.8138232291E-02      26   20    1       0.4414449665E+03      0.4940749851E+03      0.7103848937E+05      0.8138232291E-02

    ------------------------------------------------
       NWT REQUIRED            3 OUTER ITERATIONS 
       AND A TOTAL OF         25 INNER ITERATIONS.
    ------------------------------------------------

 NO OUTPUT CONTROL FOR STRESS PERIOD   57   TIME STEP    5
 
 SOLVING FOR HEAD 
                                                   Max.-Head-Change                        Max.-Flux-Residual
  Residual-Control   Outer-Iter.   Inner-Iter.     Column Row Layer    Max.-Head-Change    Column Row Layer    Max.-Flux-Residual            L2-New               L2-Old           Solver-Max-Delh
          0                 1          11            56   99     3       0.4240589898E+01      56   99    3       0.9972521401E+05      0.6748833244E+06      0.4940749851E+03      0.4240589898E+01
          0                 2           9            73   58     1      -0.7956371529E+00      58   42    2       0.1196110588E+05      0.6906550791E+05      0.6748833244E+06     -0.7956371529E+00
          0                 3           5            73   58     1       0.6767656551E-01      26   21    1       0.3310148618E+03      0.4853815727E+03      0.6906550791E+05      0.6767656551E-01
          0                 4           2            73   58     1       0.4004436810E-03      73   58    1       0.1590144375E+01      0.1786537470E+01      0.4853815727E+03      0.4004436810E-03

    ------------------------------------------------
       NWT REQUIRED            4 OUTER ITERATIONS 
       AND A TOTAL OF         27 INNER ITERATIONS.
    ------------------------------------------------

 NO OUTPUT CONTROL FOR STRESS PERIOD   57   TIME STEP    6
 
 SOLVING FOR HEAD 
                                                   Max.-Head-Change                        Max.-Flux-Residual
  Residual-Control   Outer-Iter.   Inner-Iter.     Column Row Layer    Max.-Head-Change    Column Row Layer    Max.-Flux-Residual            L2-New               L2-Old           Solver-Max-Delh
          0                 1          10            56   99     3       0.3761798310E+01      56   99    3       0.8829283383E+05      0.6525134546E+06      0.1786537470E+01      0.3761798310E+01
          0                 2           9            56   99     3      -0.3393520467E+00      62   86    2       0.1126825261E+05      0.6638881127E+05      0.6525134546E+06     -0.3393520467E+00
          0                 3           5            60   98     1       0.1284365965E-01      60   98    1       0.4859182236E+03      0.5492806684E+03      0.6638881127E+05      0.1284365965E-01
          0                 4           3            61   98     1      -0.1929783799E-03      61   98    1      -0.1458784112E+02      0.1473973537E+02      0.5492806684E+03     -0.1929783799E-03

    ------------------------------------------------
       NWT REQUIRED            4 OUTER ITERATIONS 
       AND A TOTAL OF         27 INNER ITERATIONS.
    ------------------------------------------------

 NO OUTPUT CONTROL FOR STRESS PERIOD   57   TIME STEP    7
 
 SOLVING FOR HEAD 
                                                   Max.-Head-Change                        Max.-Flux-Residual
  Residual-Control   Outer-Iter.   Inner-Iter.     Column Row Layer    Max.-Head-Change    Column Row Layer    Max.-Flux-Residual            L2-New               L2-Old           Solver-Max-Delh
          0                 1          10            56   99     3       0.3342677696E+01      81   46    1      -0.8163163774E+05      0.6342532177E+06      0.1473973537E+02      0.3342677696E+01
          0                 2           9            59   96     2      -0.1829050623E+01      59   96    2      -0.1214101659E+05      0.6537691100E+05      0.6342532177E+06     -0.1829050623E+01
          0                 3           6            59   96     2       0.2166470070E+00      59   96    2       0.1870081725E+04      0.2183482929E+04      0.6537691100E+05      0.2166470070E+00
          0                 4           3            59   96     1       0.1561494893E-02      60   96    2      -0.4218454026E+02      0.4381213039E+02      0.2183482929E+04      0.1561494893E-02

    ------------------------------------------------
       NWT REQUIRED            4 OUTER ITERATIONS 
       AND A TOTAL OF         28 INNER ITERATIONS.
    ------------------------------------------------

 NO OUTPUT CONTROL FOR STRESS PERIOD   57   TIME STEP    8
 
 SOLVING FOR HEAD 
                                                   Max.-Head-Change                        Max.-Flux-Residual
  Residual-Control   Outer-Iter.   Inner-Iter.     Column Row Layer    Max.-Head-Change    Column Row Layer    Max.-Flux-Residual            L2-New               L2-Old           Solver-Max-Delh
          0                 1          10            56   99     3       0.2974359193E+01      81   46    1      -0.7898507387E+05      0.6191955362E+06      0.4381213039E+02      0.2974359193E+01
          0                 2           9            56   79     2      -0.5604849481E+00      68   51    2       0.1413676630E+05      0.6402351395E+05      0.6191955362E+06     -0.5604849481E+00
          0                 3           5            56   79     2       0.3839329168E-01      64   94    1       0.3640293312E+03      0.4507620761E+03      0.6402351395E+05      0.3839329168E-01
          0                 4           2            56   79     1       0.9140796225E-03      61   97    1      -0.1832168937E+01      0.2409353906E+01      0.4507620761E+03      0.9140796225E-03

    ------------------------------------------------
       NWT REQUIRED            4 OUTER ITERATIONS 
       AND A TOTAL OF         26 INNER ITERATIONS.
    ------------------------------------------------

 NO OUTPUT CONTROL FOR STRESS PERIOD   57   TIME STEP    9
 
 SOLVING FOR HEAD 
                                                   Max.-Head-Change                        Max.-Flux-Residual
  Residual-Control   Outer-Iter.   Inner-Iter.     Column Row Layer    Max.-Head-Change    Column Row Layer    Max.-Flux-Residual            L2-New               L2-Old           Solver-Max-Delh
          0                 1          10            56   99     3       0.2649894368E+01      81   46    1      -0.7644679482E+05      0.6061341845E+06      0.2409353906E+01      0.2649894368E+01
          0                 2           9            58   42     1      -0.7158402725E+00      58   42    1      -0.1130781436E+05      0.6285641138E+05      0.6061341845E+06     -0.7158402725E+00
          0                 3           5            58   42     1       0.6360035875E-01      58   42    1       0.1102808661E+04      0.1259662857E+04      0.6285641138E+05      0.6360035875E-01
          0                 4           2            85   85     2      -0.1845183137E-03      58   42    1       0.2220274583E+01      0.2400374839E+01      0.1259662857E+04     -0.1845183137E-03

    ------------------------------------------------
       NWT REQUIRED            4 OUTER ITERATIONS 
       AND A TOTAL OF         26 INNER ITERATIONS.
    ------------------------------------------------

 NO OUTPUT CONTROL FOR STRESS PERIOD   57   TIME STEP   10
 
 SOLVING FOR HEAD 
                                                   Max.-Head-Change                        Max.-Flux-Residual
  Residual-Control   Outer-Iter.   Inner-Iter.     Column Row Layer    Max.-Head-Change    Column Row Layer    Max.-Flux-Residual            L2-New               L2-Old           Solver-Max-Delh
          0                 1          10            81   45     1      -0.2537860136E+01      81   46    1      -0.7401207487E+05      0.5951085465E+06      0.2400374839E+01     -0.2537860136E+01
          0                 2           9            81   45     1       0.2304354165E+00      45   36    2       0.1202045793E+05      0.6312387064E+05      0.5951085465E+06      0.2304354165E+00
          0                 3           5            58   73     1      -0.1167288099E-01      58   73    1      -0.8001680902E+03      0.9449939191E+03      0.6312387064E+05     -0.1167288099E-01
          0                 4           3            58   73     1      -0.1050831076E-02      58   73    1      -0.7202259094E+02      0.7204004471E+02      0.9449939191E+03     -0.1050831076E-02

    ------------------------------------------------
       NWT REQUIRED            4 OUTER ITERATIONS 
       AND A TOTAL OF         27 INNER ITERATIONS.
    ------------------------------------------------

 NO OUTPUT CONTROL FOR STRESS PERIOD   57   TIME STEP   11
 
 SOLVING FOR HEAD 
                                                   Max.-Head-Change                        Max.-Flux-Residual
  Residual-Control   Outer-Iter.   Inner-Iter.     Column Row Layer    Max.-Head-Change    Column Row Layer    Max.-Flux-Residual            L2-New               L2-Old           Solver-Max-Delh
          0                 1          10            81   45     1      -0.2446511695E+01      81   46    1      -0.7167635324E+05      0.5852409437E+06      0.7204004471E+02     -0.2446511695E+01
          0                 2           9            34   70     2      -0.2358925663E+01      81   46    1       0.7157775345E+04      0.5958528497E+05      0.5852409437E+06     -0.2358925663E+01
          0                 3           6            34   70     2       0.2694180125E+00      58   73    1       0.5783947963E+03      0.9013710541E+03      0.5958528497E+05      0.2694180125E+00
          0                 4           4            34   70     2       0.4951021548E-02      58  105    1      -0.4204252091E+02      0.4475626035E+02      0.9013710541E+03      0.4951021548E-02

    ------------------------------------------------
       NWT REQUIRED            4 OUTER ITERATIONS 
       AND A TOTAL OF         29 INNER ITERATIONS.
    ------------------------------------------------

 OUTPUT CONTROL FOR STRESS PERIOD   57   TIME STEP   12
    SAVE BUDGET
 UBDSV1 SAVING "         STORAGE" ON UNIT  39 AT TIME STEP 12, STRESS PERIOD  57
 UBDSV2 SAVING "   CONSTANT HEAD" ON UNIT  39 AT TIME STEP 12, STRESS PERIOD  57
 UBDSV1 SAVING "FLOW RIGHT FACE " ON UNIT  39 AT TIME STEP 12, STRESS PERIOD  57
 UBDSV1 SAVING "FLOW FRONT FACE " ON UNIT  39 AT TIME STEP 12, STRESS PERIOD  57
 UBDSV1 SAVING "FLOW LOWER FACE " ON UNIT  39 AT TIME STEP 12, STRESS PERIOD  57
 UBDSV4 SAVING "           WELLS" ON UNIT  39 AT TIME STEP 12, STRESS PERIOD  57
 UBDSV3 SAVING "              ET" ON UNIT  39 AT TIME STEP 12, STRESS PERIOD  57
 UBDSV3 SAVING "        RECHARGE" ON UNIT  39 AT TIME STEP 12, STRESS PERIOD  57
1
  VOLUMETRIC BUDGET FOR ENTIRE MODEL AT END OF TIME STEP   12, STRESS PERIOD  57
  ------------------------------------------------------------------------------

     CUMULATIVE VOLUMES      L**3       RATES FOR THIS TIME STEP      L**3/T
     ------------------                 ------------------------

           IN:                                      IN:
           ---                                      ---
             STORAGE     =366959394816.0000               STORAGE     =    24485270.0000
       CONSTANT HEAD     = 37001515008.0000         CONSTANT HEAD     =     2537033.7500
               WELLS     = 25517369344.0000                 WELLS     =     1225642.0000
                  ET     =           0.0000                    ET     =           0.0000
            RECHARGE     =427458265088.0000              RECHARGE     =    14807526.0000

                TOTAL IN =856936546304.0000                  TOTAL IN =    43055472.0000

          OUT:                                     OUT:
          ----                                     ----
             STORAGE     = 82192572416.0000               STORAGE     =     1005842.4375
       CONSTANT HEAD     = 65843433472.0000         CONSTANT HEAD     =     2110172.7500
               WELLS     =687246409728.0000                 WELLS     =    39311960.0000
                  ET     = 21653286912.0000                    ET     =      627504.4375
            RECHARGE     =           0.0000              RECHARGE     =           0.0000

               TOTAL OUT =856935694336.0000                 TOTAL OUT =    43055480.0000

                IN - OUT =      851968.0000                  IN - OUT =          -8.0000

     PERCENT DISCREPANCY =           0.00         PERCENT DISCREPANCY =          -0.00






         TIME SUMMARY AT END OF TIME STEP   12 IN STRESS PERIOD   57
                    SECONDS     MINUTES      HOURS       DAYS        YEARS
                    -----------------------------------------------------------
   TIME STEP LENGTH 2.63520E+06  43920.      732.00      30.500     8.35044E-02
 STRESS PERIOD TIME 3.16224E+07 5.27040E+05  8784.0      366.00      1.0021    
         TOTAL TIME 1.79885E+09 2.99808E+07 4.99680E+05  20820.      57.002    
1
1
                            STRESS PERIOD NO.   58, LENGTH =   365.0000    
                            -----------------------------------------------

                              NUMBER OF TIME STEPS =    12

                               MULTIPLIER FOR DELT =     1.000

                            INITIAL TIME STEP SIZE =   30.41667    

   1706 WELLS

 REUSING SURF FROM LAST STRESS PERIOD

 REUSING EVTR FROM LAST STRESS PERIOD

 REUSING EXDP FROM LAST STRESS PERIOD



                           RECHARGE
 READING ON UNIT   16 WITH FORMAT: (15F5.0)            


     63 TIME-VARIANT SPECIFIED-HEAD CELLS
 
 SOLVING FOR HEAD 
                                                   Max.-Head-Change                        Max.-Flux-Residual
  Residual-Control   Outer-Iter.   Inner-Iter.     Column Row Layer    Max.-Head-Change    Column Row Layer    Max.-Flux-Residual            L2-New               L2-Old           Solver-Max-Delh
          0                 1          11            84   50     3      -0.3096334230E+02      55  107    3       0.1738273970E+06      0.8857822997E+06      0.4475626035E+02     -0.3096334230E+02
          0                 2           9            84   50     3       0.2843628462E+01      51   36    2       0.7213048038E+05      0.1228511720E+06      0.8857822997E+06      0.2843628462E+01
          0                 3           5            55  107     2       0.4540411009E-01      58  107    1       0.6905140650E+03      0.1118011719E+04      0.1228511720E+06      0.4540411009E-01
          0                 4           3            55  107     2       0.4318495243E-02      55  107    2       0.2601783699E+02      0.2703184538E+02      0.1118011719E+04      0.4318495243E-02

    ------------------------------------------------
       NWT REQUIRED            4 OUTER ITERATIONS 
       AND A TOTAL OF         28 INNER ITERATIONS.
    ------------------------------------------------

 NO OUTPUT CONTROL FOR STRESS PERIOD   58   TIME STEP    1
 
 SOLVING FOR HEAD 
                                                   Max.-Head-Change                        Max.-Flux-Residual
  Residual-Control   Outer-Iter.   Inner-Iter.     Column Row Layer    Max.-Head-Change    Column Row Layer    Max.-Flux-Residual            L2-New               L2-Old           Solver-Max-Delh
          0                 1          10            84   50     3      -0.5252692864E+01      56   99    3      -0.8637142285E+05      0.6572877905E+06      0.2703184538E+02     -0.5252692864E+01
          0                 2           9            82   52     1      -0.5408811629E+01      82   52    1      -0.1594706868E+05      0.6911508580E+05      0.6572877905E+06     -0.5408811629E+01
          0                 3           5            82   52     1       0.4193124776E+00      82   52    1       0.1360779684E+04      0.1577222473E+04      0.6911508580E+05      0.4193124776E+00
          0                 4           3            82   52     1       0.5617075487E-02      66  100    1      -0.1790735138E+02      0.2548572730E+02      0.1577222473E+04      0.5617075487E-02

    ------------------------------------------------
       NWT REQUIRED            4 OUTER ITERATIONS 
       AND A TOTAL OF         27 INNER ITERATIONS.
    ------------------------------------------------

 NO OUTPUT CONTROL FOR STRESS PERIOD   58   TIME STEP    2
 
 SOLVING FOR HEAD 
                                                   Max.-Head-Change                        Max.-Flux-Residual
  Residual-Control   Outer-Iter.   Inner-Iter.     Column Row Layer    Max.-Head-Change    Column Row Layer    Max.-Flux-Residual            L2-New               L2-Old           Solver-Max-Delh
          0                 1          10            82   52     1      -0.5808320408E+01      56   99    3      -0.7375471392E+05      0.6064765632E+06      0.2548572730E+02     -0.5808320408E+01
          0                 2           9            66  100     1      -0.6116665071E+00      56   99    3       0.7370772345E+04      0.6100166716E+05      0.6064765632E+06     -0.6116665071E+00
          0                 3           5            66  100     1       0.4802986083E-01      26   23    1       0.3230016910E+03      0.4990135977E+03      0.6100166716E+05      0.4802986083E-01
          0                 4           3            66  100     1       0.5939499409E-03      63   71    2      -0.1593630429E+01      0.2601169035E+01      0.4990135977E+03      0.5939499409E-03

    ------------------------------------------------
       NWT REQUIRED            4 OUTER ITERATIONS 
       AND A TOTAL OF         27 INNER ITERATIONS.
    ------------------------------------------------

 NO OUTPUT CONTROL FOR STRESS PERIOD   58   TIME STEP    3
 
 SOLVING FOR HEAD 
                                                   Max.-Head-Change                        Max.-Flux-Residual
  Residual-Control   Outer-Iter.   Inner-Iter.     Column Row Layer    Max.-Head-Change    Column Row Layer    Max.-Flux-Residual            L2-New               L2-Old           Solver-Max-Delh
          0                 1          10            56   99     3      -0.2640999160E+01      81   46    1      -0.7110833762E+05      0.5827753906E+06      0.2601169035E+01     -0.2640999160E+01
          0                 2           9            65    7     2      -0.5878552713E+01      81   46    1       0.7101227101E+04      0.5876705322E+05      0.5827753906E+06     -0.5878552713E+01
          0                 3           5            65    7     2       0.2769689576E+00      73   59    1       0.2002060566E+03      0.2807079102E+03      0.5876705322E+05      0.2769689576E+00
          0                 4           2            65    7     2       0.1208573950E-01      65    7    2       0.6994289975E+01      0.7215771024E+01      0.2807079102E+03      0.1208573950E-01
          0                 5           1            65    7     2       0.5262567079E-03      65    7    2       0.3045431895E+00      0.3081492478E+00      0.7215771024E+01      0.5262567079E-03

    ------------------------------------------------
       NWT REQUIRED            5 OUTER ITERATIONS 
       AND A TOTAL OF         27 INNER ITERATIONS.
    ------------------------------------------------

 NO OUTPUT CONTROL FOR STRESS PERIOD   58   TIME STEP    4
 
 SOLVING FOR HEAD 
                                                   Max.-Head-Change                        Max.-Flux-Residual
  Residual-Control   Outer-Iter.   Inner-Iter.     Column Row Layer    Max.-Head-Change    Column Row Layer    Max.-Flux-Residual            L2-New               L2-Old           Solver-Max-Delh
          0                 1          10            65    7     2      -0.2887635321E+01      81   46    1      -0.6898375194E+05      0.5676430863E+06      0.3081492478E+00     -0.2887635321E+01
          0                 2           9            91   68     1      -0.2458615454E+00      81   46    1       0.6889354370E+04      0.5696282966E+05      0.5676430863E+06     -0.2458615454E+00
          0                 3           5            91   68     1       0.2081136723E-01      91   68    1       0.1285809089E+03      0.1441850137E+03      0.5696282966E+05      0.2081136723E-01
          0                 4           2            65    7     2       0.2587514885E-03      91   68    1       0.7631674483E+00      0.9205604243E+00      0.1441850137E+03      0.2587514885E-03

    ------------------------------------------------
       NWT REQUIRED            4 OUTER ITERATIONS 
       AND A TOTAL OF         26 INNER ITERATIONS.
    ------------------------------------------------

 NO OUTPUT CONTROL FOR STRESS PERIOD   58   TIME STEP    5
 
 SOLVING FOR HEAD 
                                                   Max.-Head-Change                        Max.-Flux-Residual
  Residual-Control   Outer-Iter.   Inner-Iter.     Column Row Layer    Max.-Head-Change    Column Row Layer    Max.-Flux-Residual            L2-New               L2-Old           Solver-Max-Delh
          0                 1          10            81   45     1      -0.2231908576E+01      81   46    1      -0.6690826416E+05      0.5567489601E+06      0.9205604243E+00     -0.2231908576E+01
          0                 2           9            73   15     2      -0.7830656708E+00      81   46    1       0.6682353412E+04      0.5641345375E+05      0.5567489601E+06     -0.7830656708E+00
          0                 3           5            73   15     2       0.6536493622E-01      73   15    2       0.4815340932E+03      0.7501101063E+03      0.5641345375E+05      0.6536493622E-01
          0                 4           2            73   15     1       0.7780207944E-03      73   15    1       0.1687546385E+01      0.2452328681E+01      0.7501101063E+03      0.7780207944E-03

    ------------------------------------------------
       NWT REQUIRED            4 OUTER ITERATIONS 
       AND A TOTAL OF         26 INNER ITERATIONS.
    ------------------------------------------------

 NO OUTPUT CONTROL FOR STRESS PERIOD   58   TIME STEP    6
 
 SOLVING FOR HEAD 
                                                   Max.-Head-Change                        Max.-Flux-Residual
  Residual-Control   Outer-Iter.   Inner-Iter.     Column Row Layer    Max.-Head-Change    Column Row Layer    Max.-Flux-Residual            L2-New               L2-Old           Solver-Max-Delh
          0                 1          10            81   45     1      -0.2155991307E+01      81   46    1      -0.6491531342E+05      0.5485172188E+06      0.2452328681E+01     -0.2155991307E+01
          0                 2           9            70   17     1      -0.7328209377E+00      62   89    2       0.1294229058E+05      0.5666303288E+05      0.5485172188E+06     -0.7328209377E+00
          0                 3           5            70   17     1       0.6223386239E-01      62   89    1      -0.9856638007E+03      0.1097391989E+04      0.5666303288E+05      0.6223386239E-01
          0                 4           3            62   89     1      -0.1166982058E-02      62   89    1      -0.8874505416E+02      0.8883033266E+02      0.1097391989E+04     -0.1166982058E-02

    ------------------------------------------------
       NWT REQUIRED            4 OUTER ITERATIONS 
       AND A TOTAL OF         27 INNER ITERATIONS.
    ------------------------------------------------

 NO OUTPUT CONTROL FOR STRESS PERIOD   58   TIME STEP    7
 
 SOLVING FOR HEAD 
                                                   Max.-Head-Change                        Max.-Flux-Residual
  Residual-Control   Outer-Iter.   Inner-Iter.     Column Row Layer    Max.-Head-Change    Column Row Layer    Max.-Flux-Residual            L2-New               L2-Old           Solver-Max-Delh
          0                 1          10            81   45     1      -0.2087114921E+01      81   46    1      -0.6300353229E+05      0.5419333303E+06      0.8883033266E+02     -0.2087114921E+01
          0                 2           9            62   89     1      -0.2417276854E+00      62   93    2       0.1142805429E+05      0.5686529149E+05      0.5419333303E+06     -0.2417276854E+00
          0                 3           5            68   51     1      -0.9525387402E-01      68   51    1      -0.4175205109E+04      0.4265134187E+04      0.5686529149E+05     -0.9525387402E-01
          0                 4           4            68   51     1      -0.8587582902E-02      68   51    1      -0.3762780581E+03      0.3762948283E+03      0.4265134187E+04     -0.8587582902E-02

    ------------------------------------------------
       NWT REQUIRED            4 OUTER ITERATIONS 
       AND A TOTAL OF         28 INNER ITERATIONS.
    ------------------------------------------------

 NO OUTPUT CONTROL FOR STRESS PERIOD   58   TIME STEP    8
 
 SOLVING FOR HEAD 
                                                   Max.-Head-Change                        Max.-Flux-Residual
  Residual-Control   Outer-Iter.   Inner-Iter.     Column Row Layer    Max.-Head-Change    Column Row Layer    Max.-Flux-Residual            L2-New               L2-Old           Solver-Max-Delh
          0                 1          10            81   45     1      -0.2020344792E+01      81   46    1      -0.6117076336E+05      0.5362549654E+06      0.3762948283E+03     -0.2020344792E+01
          0                 2           9            68   51     1      -0.1096247517E+01      69   47    2       0.2791956353E+05      0.6112325416E+05      0.5362549654E+06     -0.1096247517E+01
          0                 3           5            68   51     1       0.9494639735E-01      68   51    1       0.7294763828E+03      0.7701182079E+03      0.6112325416E+05      0.9494639735E-01
          0                 4           3            68   51     1       0.4119757719E-03      68   51    1       0.3092828188E+01      0.3266717050E+01      0.7701182079E+03      0.4119757719E-03

    ------------------------------------------------
       NWT REQUIRED            4 OUTER ITERATIONS 
       AND A TOTAL OF         27 INNER ITERATIONS.
    ------------------------------------------------

 NO OUTPUT CONTROL FOR STRESS PERIOD   58   TIME STEP    9
 
 SOLVING FOR HEAD 
                                                   Max.-Head-Change                        Max.-Flux-Residual
  Residual-Control   Outer-Iter.   Inner-Iter.     Column Row Layer    Max.-Head-Change    Column Row Layer    Max.-Flux-Residual            L2-New               L2-Old           Solver-Max-Delh
          0                 1          10            81   45     1      -0.1956897133E+01      81   46    1      -0.5945030710E+05      0.5313737818E+06      0.3266717050E+01     -0.1956897133E+01
          0                 2           9            69   56     1      -0.1291862075E+01      77   46    2       0.1470376813E+05      0.5657447323E+05      0.5313737818E+06     -0.1291862075E+01
          0                 3           5            43   38     2      -0.1159182169E+00      43   38    2      -0.6428218084E+04      0.7186662402E+04      0.5657447323E+05     -0.1159182169E+00
          0                 4           4            43   38     1      -0.1054513573E-01      43   38    2      -0.5788081125E+03      0.6454470853E+03      0.7186662402E+04     -0.1054513573E-01
          0                 5           3            43   38     1      -0.9592545217E-03      43   38    2      -0.5203707737E+02      0.5803084865E+02      0.6454470853E+03     -0.9592545217E-03

    ------------------------------------------------
       NWT REQUIRED            5 OUTER ITERATIONS 
       AND A TOTAL OF         31 INNER ITERATIONS.
    ------------------------------------------------

 NO OUTPUT CONTROL FOR STRESS PERIOD   58   TIME STEP   10
 
 SOLVING FOR HEAD 
                                                   Max.-Head-Change                        Max.-Flux-Residual
  Residual-Control   Outer-Iter.   Inner-Iter.     Column Row Layer    Max.-Head-Change    Column Row Layer    Max.-Flux-Residual            L2-New               L2-Old           Solver-Max-Delh
          0                 1          10            69   56     1      -0.1951402208E+01      81   46    1      -0.5779482586E+05      0.5268957293E+06      0.5803084865E+02     -0.1951402208E+01
          0                 2           9            73   60     1      -0.1245509676E+01      50   38    2       0.8903197005E+04      0.5448821240E+05      0.5268957293E+06     -0.1245509676E+01
          0                 3           6            73   60     1       0.1042688583E+00      58   67    1      -0.4771711927E+04      0.4861966881E+04      0.5448821240E+05      0.1042688583E+00
          0                 4           3            58   67     1      -0.6510379524E-02      58   67    1      -0.4301096955E+03      0.4302841182E+03      0.4861966881E+04     -0.6510379524E-02

    ------------------------------------------------
       NWT REQUIRED            4 OUTER ITERATIONS 
       AND A TOTAL OF         28 INNER ITERATIONS.
    ------------------------------------------------

 NO OUTPUT CONTROL FOR STRESS PERIOD   58   TIME STEP   11
 
 SOLVING FOR HEAD 
                                                   Max.-Head-Change                        Max.-Flux-Residual
  Residual-Control   Outer-Iter.   Inner-Iter.     Column Row Layer    Max.-Head-Change    Column Row Layer    Max.-Flux-Residual            L2-New               L2-Old           Solver-Max-Delh
          0                 1          10            81   45     1      -0.1838832969E+01      81   46    1      -0.5620154076E+05      0.5228691898E+06      0.4302841182E+03     -0.1838832969E+01
          0                 2           9            66    4     2      -0.5874461512E+00      51   38    2       0.1106995485E+05      0.5459715454E+05      0.5228691898E+06     -0.5874461512E+00
          0                 3           5            58   67     1       0.1757662614E-01      58   67    1       0.5675499661E+03      0.7469896137E+03      0.5459715454E+05      0.1757662614E-01
          0                 4           2            66    4     2       0.1003222001E-02      66    4    3       0.1033393886E+01      0.1446859345E+01      0.7469896137E+03      0.1003222001E-02

    ------------------------------------------------
       NWT REQUIRED            4 OUTER ITERATIONS 
       AND A TOTAL OF         26 INNER ITERATIONS.
    ------------------------------------------------

 OUTPUT CONTROL FOR STRESS PERIOD   58   TIME STEP   12
    SAVE BUDGET
 UBDSV1 SAVING "         STORAGE" ON UNIT  39 AT TIME STEP 12, STRESS PERIOD  58
 UBDSV2 SAVING "   CONSTANT HEAD" ON UNIT  39 AT TIME STEP 12, STRESS PERIOD  58
 UBDSV1 SAVING "FLOW RIGHT FACE " ON UNIT  39 AT TIME STEP 12, STRESS PERIOD  58
 UBDSV1 SAVING "FLOW FRONT FACE " ON UNIT  39 AT TIME STEP 12, STRESS PERIOD  58
 UBDSV1 SAVING "FLOW LOWER FACE " ON UNIT  39 AT TIME STEP 12, STRESS PERIOD  58
 UBDSV4 SAVING "           WELLS" ON UNIT  39 AT TIME STEP 12, STRESS PERIOD  58
 UBDSV3 SAVING "              ET" ON UNIT  39 AT TIME STEP 12, STRESS PERIOD  58
 UBDSV3 SAVING "        RECHARGE" ON UNIT  39 AT TIME STEP 12, STRESS PERIOD  58
1
  VOLUMETRIC BUDGET FOR ENTIRE MODEL AT END OF TIME STEP   12, STRESS PERIOD  58
  ------------------------------------------------------------------------------

     CUMULATIVE VOLUMES      L**3       RATES FOR THIS TIME STEP      L**3/T
     ------------------                 ------------------------

           IN:                                      IN:
           ---                                      ---
             STORAGE     =375940612096.0000               STORAGE     =    24048014.0000
       CONSTANT HEAD     = 37948604416.0000         CONSTANT HEAD     =     2594290.2500
               WELLS     = 25964726272.0000                 WELLS     =     1225642.0000
                  ET     =           0.0000                    ET     =           0.0000
            RECHARGE     =432599957504.0000              RECHARGE     =    14087306.0000

                TOTAL IN =872453898240.0000                  TOTAL IN =    41955252.0000

          OUT:                                     OUT:
          ----                                     ----
             STORAGE     = 82576326656.0000               STORAGE     =      700612.9375
       CONSTANT HEAD     = 66553532416.0000         CONSTANT HEAD     =     1843809.3750
               WELLS     =701488300032.0000                 WELLS     =    38987048.0000
                  ET     = 21835143168.0000                    ET     =      423783.2188
            RECHARGE     =           0.0000              RECHARGE     =           0.0000

               TOTAL OUT =872453308416.0000                 TOTAL OUT =    41955256.0000

                IN - OUT =      589824.0000                  IN - OUT =          -4.0000

     PERCENT DISCREPANCY =           0.00         PERCENT DISCREPANCY =          -0.00






         TIME SUMMARY AT END OF TIME STEP   12 IN STRESS PERIOD   58
                    SECONDS     MINUTES      HOURS       DAYS        YEARS
                    -----------------------------------------------------------
   TIME STEP LENGTH 2.62800E+06  43800.      730.00      30.417     8.32763E-02
 STRESS PERIOD TIME 3.15360E+07 5.25600E+05  8760.0      365.00     0.99932    
         TOTAL TIME 1.83038E+09 3.05064E+07 5.08439E+05  21185.      58.001    
1
1
                            STRESS PERIOD NO.   59, LENGTH =   365.0000    
                            -----------------------------------------------

                              NUMBER OF TIME STEPS =    12

                               MULTIPLIER FOR DELT =     1.000

                            INITIAL TIME STEP SIZE =   30.41667    

   1670 WELLS

 REUSING SURF FROM LAST STRESS PERIOD

 REUSING EVTR FROM LAST STRESS PERIOD

 REUSING EXDP FROM LAST STRESS PERIOD



                           RECHARGE
 READING ON UNIT   16 WITH FORMAT: (15F5.0)            


     63 TIME-VARIANT SPECIFIED-HEAD CELLS
 
 SOLVING FOR HEAD 
                                                   Max.-Head-Change                        Max.-Flux-Residual
  Residual-Control   Outer-Iter.   Inner-Iter.     Column Row Layer    Max.-Head-Change    Column Row Layer    Max.-Flux-Residual            L2-New               L2-Old           Solver-Max-Delh
          0                 1          11            92   77     2       0.1437227219E+03      54   47    2      -0.2543689460E+06      0.1424766150E+07      0.1446859345E+01      0.1437227219E+03
          0                 2          10            88   67     1      -0.3600115956E+02      88   67    1      -0.1490539086E+07      0.1815047303E+07      0.1424766150E+07     -0.3600115956E+02
          0                 3           6            91   77     2       0.1126988051E+02      85   57    2      -0.5686077813E+05      0.6170402746E+05      0.1815047303E+07      0.1126988051E+02
          0                 4           4            91   77     2       0.1818616793E+01      85   57    2      -0.5127373016E+04      0.5305350821E+04      0.6170402746E+05      0.1818616793E+01
          0                 5           3            91   77     2       0.2779747904E+00      85   57    2      -0.4610317116E+03      0.4916291273E+03      0.5305350821E+04      0.2779747904E+00
          0                 6           2            91   77     2       0.4251523264E-01      85   57    2      -0.4140131999E+02      0.4740034258E+02      0.4916291273E+03      0.4251523264E-01
          0                 7           2            91   77     2       0.6500010445E-02      85   57    2      -0.3713704967E+01      0.4951095204E+01      0.4740034258E+02      0.6500010445E-02

    ------------------------------------------------
       NWT REQUIRED            7 OUTER ITERATIONS 
       AND A TOTAL OF         38 INNER ITERATIONS.
    ------------------------------------------------

 NO OUTPUT CONTROL FOR STRESS PERIOD   59   TIME STEP    1
 
 SOLVING FOR HEAD 
                                                   Max.-Head-Change                        Max.-Flux-Residual
  Residual-Control   Outer-Iter.   Inner-Iter.     Column Row Layer    Max.-Head-Change    Column Row Layer    Max.-Flux-Residual            L2-New               L2-Old           Solver-Max-Delh
          0                 1          11            92   52     1       0.4982572916E+01      83   51    1       0.1953383458E+06      0.1098507517E+07      0.4951095204E+01      0.4982572916E+01
          0                 2           9            85   57     2      -0.1932696057E+02      54   47    2       0.2132697017E+05      0.1161012192E+06      0.1098507517E+07     -0.1932696057E+02
          0                 3           5            85   57     2      -0.1279744151E+01      85   57    2      -0.2305370668E+03      0.4158108750E+03      0.1161012192E+06     -0.1279744151E+01
          0                 4           3            85   57     2      -0.8431965361E-01      85   57    2      -0.1529277307E+02      0.1812081505E+02      0.4158108750E+03     -0.8431965361E-01
          0                 5           2            85   57     2      -0.5553892164E-02      85   57    2      -0.9969173734E+00      0.1269883487E+01      0.1812081505E+02     -0.5553892164E-02

    ------------------------------------------------
       NWT REQUIRED            5 OUTER ITERATIONS 
       AND A TOTAL OF         30 INNER ITERATIONS.
    ------------------------------------------------

 NO OUTPUT CONTROL FOR STRESS PERIOD   59   TIME STEP    2
 
 SOLVING FOR HEAD 
                                                   Max.-Head-Change                        Max.-Flux-Residual
  Residual-Control   Outer-Iter.   Inner-Iter.     Column Row Layer    Max.-Head-Change    Column Row Layer    Max.-Flux-Residual            L2-New               L2-Old           Solver-Max-Delh
          0                 1          11            85   52     1       0.4406610887E+01      85   52    1       0.1784609908E+06      0.9542110544E+06      0.1269883487E+01      0.4406610887E+01
          0                 2           9            69   47     2       0.3633742695E+01      69   47    2       0.3105248226E+05      0.1019466842E+06      0.9542110544E+06      0.3633742695E+01
          0                 3           5            69   47     2      -0.3303923505E+00      69   47    2      -0.3175064870E+04      0.3635319096E+04      0.1019466842E+06     -0.3303923505E+00
          0                 4           3            63  108     1      -0.1354450265E-02      63  108    1      -0.4900489388E+02      0.5527308455E+02      0.3635319096E+04     -0.1354450265E-02

    ------------------------------------------------
       NWT REQUIRED            4 OUTER ITERATIONS 
       AND A TOTAL OF         28 INNER ITERATIONS.
    ------------------------------------------------

 NO OUTPUT CONTROL FOR STRESS PERIOD   59   TIME STEP    3
 
 SOLVING FOR HEAD 
                                                   Max.-Head-Change                        Max.-Flux-Residual
  Residual-Control   Outer-Iter.   Inner-Iter.     Column Row Layer    Max.-Head-Change    Column Row Layer    Max.-Flux-Residual            L2-New               L2-Old           Solver-Max-Delh
          0                 1          10            85   52     1       0.4057780532E+01      85   52    1       0.1648356707E+06      0.8588021898E+06      0.5527308455E+02      0.4057780532E+01
          0                 2           9            54   47     1      -0.7240469636E+00      85   52    1      -0.2313609557E+05      0.9278317940E+05      0.8588021898E+06     -0.7240469636E+00
          0                 3           6            54   47     1       0.6443423315E-01      54   47    1       0.2173894870E+04      0.2675052145E+04      0.9278317940E+05      0.6443423315E-01
          0                 4           3            53   46     1      -0.1772062019E-02      53   46    1      -0.1164004815E+03      0.1167729236E+03      0.2675052145E+04     -0.1772062019E-02

    ------------------------------------------------
       NWT REQUIRED            4 OUTER ITERATIONS 
       AND A TOTAL OF         28 INNER ITERATIONS.
    ------------------------------------------------

 NO OUTPUT CONTROL FOR STRESS PERIOD   59   TIME STEP    4
 
 SOLVING FOR HEAD 
                                                   Max.-Head-Change                        Max.-Flux-Residual
  Residual-Control   Outer-Iter.   Inner-Iter.     Column Row Layer    Max.-Head-Change    Column Row Layer    Max.-Flux-Residual            L2-New               L2-Old           Solver-Max-Delh
          0                 1          10            77   48     1       0.3711589347E+01      77   48    1       0.1497584571E+06      0.7882081682E+06      0.1167729236E+03      0.3711589347E+01
          0                 2           9            72   61     1      -0.1386087824E+01      77   48    1      -0.1586621883E+05      0.7926747528E+05      0.7882081682E+06     -0.1386087824E+01
          0                 3           6            72   61     1       0.1134010838E+00      59   75    1      -0.3748648926E+04      0.4176107338E+04      0.7926747528E+05      0.1134010838E+00
          0                 4           4            59   75     1      -0.5166426703E-02      59   75    1      -0.3377151431E+03      0.3378414137E+03      0.4176107338E+04     -0.5166426703E-02

    ------------------------------------------------
       NWT REQUIRED            4 OUTER ITERATIONS 
       AND A TOTAL OF         29 INNER ITERATIONS.
    ------------------------------------------------

 NO OUTPUT CONTROL FOR STRESS PERIOD   59   TIME STEP    5
 
 SOLVING FOR HEAD 
                                                   Max.-Head-Change                        Max.-Flux-Residual
  Residual-Control   Outer-Iter.   Inner-Iter.     Column Row Layer    Max.-Head-Change    Column Row Layer    Max.-Flux-Residual            L2-New               L2-Old           Solver-Max-Delh
          0                 1          10            77   48     1       0.3457735002E+01      77   48    1       0.1392169744E+06      0.7322200553E+06      0.3378414137E+03      0.3457735002E+01
          0                 2           9            77   48     1      -0.7140320328E+00      77   48    1      -0.3804667899E+05      0.8237362493E+05      0.7322200553E+06     -0.7140320328E+00
          0                 3           5            56   67     1       0.2432459526E-01      56   67    1       0.4132555806E+03      0.5593756826E+03      0.8237362493E+05      0.2432459526E-01
          0                 4           2            91   77     2      -0.3440380767E-03      88   49    3       0.1325393673E+01      0.1959430338E+01      0.5593756826E+03     -0.3440380767E-03

    ------------------------------------------------
       NWT REQUIRED            4 OUTER ITERATIONS 
       AND A TOTAL OF         26 INNER ITERATIONS.
    ------------------------------------------------

 NO OUTPUT CONTROL FOR STRESS PERIOD   59   TIME STEP    6
 
 SOLVING FOR HEAD 
                                                   Max.-Head-Change                        Max.-Flux-Residual
  Residual-Control   Outer-Iter.   Inner-Iter.     Column Row Layer    Max.-Head-Change    Column Row Layer    Max.-Flux-Residual            L2-New               L2-Old           Solver-Max-Delh
          0                 1          10            76   48     1       0.3093902231E+01      76   48    1       0.1237245643E+06      0.6852793939E+06      0.1959430338E+01      0.3093902231E+01
          0                 2           9            60   86     2      -0.1424830645E+01      76   48    1      -0.2388389425E+05      0.7302424556E+05      0.6852793939E+06     -0.1424830645E+01
          0                 3           5            60   86     2       0.1103681953E+00      60   86    2       0.5644742892E+03      0.6716869937E+03      0.7302424556E+05      0.1103681953E+00
          0                 4           3            60   86     1       0.1531951714E-02      60   86    1       0.3555259824E+01      0.4981890884E+01      0.6716869937E+03      0.1531951714E-02

    ------------------------------------------------
       NWT REQUIRED            4 OUTER ITERATIONS 
       AND A TOTAL OF         27 INNER ITERATIONS.
    ------------------------------------------------

 NO OUTPUT CONTROL FOR STRESS PERIOD   59   TIME STEP    7
 
 SOLVING FOR HEAD 
                                                   Max.-Head-Change                        Max.-Flux-Residual
  Residual-Control   Outer-Iter.   Inner-Iter.     Column Row Layer    Max.-Head-Change    Column Row Layer    Max.-Flux-Residual            L2-New               L2-Old           Solver-Max-Delh
          0                 1          10            92   52     1       0.2891510030E+01      76   48    1       0.1090633409E+06      0.6464565085E+06      0.4981890884E+01      0.2891510030E+01
          0                 2           9            77   69     1      -0.4007249195E+00      34   26    2       0.1107579914E+05      0.6661439796E+05      0.6464565085E+06     -0.4007249195E+00
          0                 3           6            77   69     1       0.3383251199E-01      34   26    2      -0.1103913522E+04      0.1171493053E+04      0.6661439796E+05      0.3383251199E-01
          0                 4           2            91   77     2      -0.2814047250E-03      79   48    1       0.5499426510E+01      0.5602013674E+01      0.1171493053E+04     -0.2814047250E-03

    ------------------------------------------------
       NWT REQUIRED            4 OUTER ITERATIONS 
       AND A TOTAL OF         27 INNER ITERATIONS.
    ------------------------------------------------

 NO OUTPUT CONTROL FOR STRESS PERIOD   59   TIME STEP    8
 
 SOLVING FOR HEAD 
                                                   Max.-Head-Change                        Max.-Flux-Residual
  Residual-Control   Outer-Iter.   Inner-Iter.     Column Row Layer    Max.-Head-Change    Column Row Layer    Max.-Flux-Residual            L2-New               L2-Old           Solver-Max-Delh
          0                 1          10            92   52     1       0.2731279300E+01      75   48    1       0.1027680795E+06      0.6131815949E+06      0.5602013674E+01      0.2731279300E+01
          0                 2           9            63  110     1      -0.3080134176E+00      75   48    1      -0.1031929917E+05      0.6177518962E+05      0.6131815949E+06     -0.3080134176E+00
          0                 3           6            63  110     1       0.2616587747E-01      63  110    1       0.1188502298E+03      0.1796773487E+03      0.6177518962E+05      0.2616587747E-01
          0                 4           2            91   77     2      -0.2555268319E-03      63  110    1       0.6897649281E+00      0.7891815830E+00      0.1796773487E+03     -0.2555268319E-03

    ------------------------------------------------
       NWT REQUIRED            4 OUTER ITERATIONS 
       AND A TOTAL OF         27 INNER ITERATIONS.
    ------------------------------------------------

 NO OUTPUT CONTROL FOR STRESS PERIOD   59   TIME STEP    9
 
 SOLVING FOR HEAD 
                                                   Max.-Head-Change                        Max.-Flux-Residual
  Residual-Control   Outer-Iter.   Inner-Iter.     Column Row Layer    Max.-Head-Change    Column Row Layer    Max.-Flux-Residual            L2-New               L2-Old           Solver-Max-Delh
          0                 1          10            92   52     1       0.2586599529E+01      75   48    1       0.9655975444E+05      0.5856398225E+06      0.7891815830E+00      0.2586599529E+01
          0                 2           9            77   46     2       0.4954526573E+00      86   52    1      -0.1070560443E+05      0.6003626970E+05      0.5856398225E+06      0.4954526573E+00
          0                 3           5            77   46     2      -0.4504499964E-01      62   87    1      -0.3291322338E+03      0.4751472760E+03      0.6003626970E+05     -0.4504499964E-01
          0                 4           3            70   97     1       0.4017718656E-03      62   87    1      -0.2962539914E+02      0.2965970649E+02      0.4751472760E+03      0.4017718656E-03

    ------------------------------------------------
       NWT REQUIRED            4 OUTER ITERATIONS 
       AND A TOTAL OF         27 INNER ITERATIONS.
    ------------------------------------------------

 NO OUTPUT CONTROL FOR STRESS PERIOD   59   TIME STEP   10
 
 SOLVING FOR HEAD 
                                                   Max.-Head-Change                        Max.-Flux-Residual
  Residual-Control   Outer-Iter.   Inner-Iter.     Column Row Layer    Max.-Head-Change    Column Row Layer    Max.-Flux-Residual            L2-New               L2-Old           Solver-Max-Delh
          0                 1          10            92   52     1       0.2450833976E+01      75   48    1       0.9042545469E+05      0.5621498957E+06      0.2965970649E+02      0.2450833976E+01
          0                 2           9            92   52     1      -0.2239315493E+00      83   51    1      -0.1144410475E+05      0.5873917056E+05      0.5621498957E+06     -0.2239315493E+00
          0                 3           5            90   76     2      -0.7384789532E-01      90   76    2      -0.2118169022E+04      0.2197729101E+04      0.5873917056E+05     -0.7384789532E-01
          0                 4           2            90   77     2       0.3299644870E-03      90   51    1       0.2203106463E+01      0.2334980778E+01      0.2197729101E+04      0.3299644870E-03

    ------------------------------------------------
       NWT REQUIRED            4 OUTER ITERATIONS 
       AND A TOTAL OF         26 INNER ITERATIONS.
    ------------------------------------------------

 NO OUTPUT CONTROL FOR STRESS PERIOD   59   TIME STEP   11
 
 SOLVING FOR HEAD 
                                                   Max.-Head-Change                        Max.-Flux-Residual
  Residual-Control   Outer-Iter.   Inner-Iter.     Column Row Layer    Max.-Head-Change    Column Row Layer    Max.-Flux-Residual            L2-New               L2-Old           Solver-Max-Delh
          0                 1          10            92   52     1       0.2324953823E+01      75   48    1       0.8446349708E+05      0.5410741995E+06      0.2334980778E+01      0.2324953823E+01
          0                 2           9            75   48     1      -0.2124456790E+00      75   48    1      -0.9611072723E+04      0.5512590438E+05      0.5410741995E+06     -0.2124456790E+00
          0                 3           5            63   61     1       0.1471366257E-01      59   65    1       0.2573787916E+03      0.3622327130E+03      0.5512590438E+05      0.1471366257E-01
          0                 4           2            91   77     2      -0.1950022471E-03      59   42    1      -0.3943544012E+00      0.8320179394E+00      0.3622327130E+03     -0.1950022471E-03

    ------------------------------------------------
       NWT REQUIRED            4 OUTER ITERATIONS 
       AND A TOTAL OF         26 INNER ITERATIONS.
    ------------------------------------------------

 OUTPUT CONTROL FOR STRESS PERIOD   59   TIME STEP   12
    SAVE BUDGET
 UBDSV1 SAVING "         STORAGE" ON UNIT  39 AT TIME STEP 12, STRESS PERIOD  59
 UBDSV2 SAVING "   CONSTANT HEAD" ON UNIT  39 AT TIME STEP 12, STRESS PERIOD  59
 UBDSV1 SAVING "FLOW RIGHT FACE " ON UNIT  39 AT TIME STEP 12, STRESS PERIOD  59
 UBDSV1 SAVING "FLOW FRONT FACE " ON UNIT  39 AT TIME STEP 12, STRESS PERIOD  59
 UBDSV1 SAVING "FLOW LOWER FACE " ON UNIT  39 AT TIME STEP 12, STRESS PERIOD  59
 UBDSV4 SAVING "           WELLS" ON UNIT  39 AT TIME STEP 12, STRESS PERIOD  59
 UBDSV3 SAVING "              ET" ON UNIT  39 AT TIME STEP 12, STRESS PERIOD  59
 UBDSV3 SAVING "        RECHARGE" ON UNIT  39 AT TIME STEP 12, STRESS PERIOD  59
1
  VOLUMETRIC BUDGET FOR ENTIRE MODEL AT END OF TIME STEP   12, STRESS PERIOD  59
  ------------------------------------------------------------------------------

     CUMULATIVE VOLUMES      L**3       RATES FOR THIS TIME STEP      L**3/T
     ------------------                 ------------------------

           IN:                                      IN:
           ---                                      ---
             STORAGE     =381835116544.0000               STORAGE     =    14784731.0000
       CONSTANT HEAD     = 38887841792.0000         CONSTANT HEAD     =     2561741.5000
               WELLS     = 26412083200.0000                 WELLS     =     1225642.0000
                  ET     =           0.0000                    ET     =           0.0000
            RECHARGE     =442382778368.0000              RECHARGE     =    26801958.0000

                TOTAL IN =889517834240.0000                  TOTAL IN =    45374072.0000

          OUT:                                     OUT:
          ----                                     ----
             STORAGE     = 85867700224.0000               STORAGE     =     7362867.0000
       CONSTANT HEAD     = 67213148160.0000         CONSTANT HEAD     =     1773243.1250
               WELLS     =714277978112.0000                 WELLS     =    35036256.0000
                  ET     = 22158321664.0000                    ET     =     1201710.0000
            RECHARGE     =           0.0000              RECHARGE     =           0.0000

               TOTAL OUT =889517178880.0000                 TOTAL OUT =    45374080.0000

                IN - OUT =      655360.0000                  IN - OUT =          -8.0000

     PERCENT DISCREPANCY =           0.00         PERCENT DISCREPANCY =          -0.00






         TIME SUMMARY AT END OF TIME STEP   12 IN STRESS PERIOD   59
                    SECONDS     MINUTES      HOURS       DAYS        YEARS
                    -----------------------------------------------------------
   TIME STEP LENGTH 2.62800E+06  43800.      730.00      30.417     8.32763E-02
 STRESS PERIOD TIME 3.15360E+07 5.25600E+05  8760.0      365.00     0.99932    
         TOTAL TIME 1.86192E+09 3.10320E+07 5.17199E+05  21550.      59.001    
1
1
                            STRESS PERIOD NO.   60, LENGTH =   365.0000    
                            -----------------------------------------------

                              NUMBER OF TIME STEPS =    12

                               MULTIPLIER FOR DELT =     1.000

                            INITIAL TIME STEP SIZE =   30.41667    

   1685 WELLS

 REUSING SURF FROM LAST STRESS PERIOD

 REUSING EVTR FROM LAST STRESS PERIOD

 REUSING EXDP FROM LAST STRESS PERIOD



                           RECHARGE
 READING ON UNIT   16 WITH FORMAT: (15F5.0)            


     63 TIME-VARIANT SPECIFIED-HEAD CELLS
 
 SOLVING FOR HEAD 
                                                   Max.-Head-Change                        Max.-Flux-Residual
  Residual-Control   Outer-Iter.   Inner-Iter.     Column Row Layer    Max.-Head-Change    Column Row Layer    Max.-Flux-Residual            L2-New               L2-Old           Solver-Max-Delh
          0                 1          11            84   61     1      -0.2769784308E+02      79   49    1      -0.1924741057E+06      0.1134155896E+07      0.8320179394E+00     -0.2769784308E+02
          0                 2          10            81   59     1      -0.1449988467E+02      81   59    1      -0.2677233990E+05      0.1151806628E+06      0.1134155896E+07     -0.1449988467E+02
          0                 3           6            81   59     1       0.1057184125E+01      81   59    2      -0.2502064144E+04      0.3436524941E+04      0.1151806628E+06      0.1057184125E+01
          0                 4           3            81   59     1       0.1824648891E-01      81   59    1       0.3700639624E+02      0.4130855384E+02      0.3436524941E+04      0.1824648891E-01
          0                 5           2            81   59     1       0.3141785974E-03      81   59    2       0.3122728553E+01      0.3563095787E+01      0.4130855384E+02      0.3141785974E-03

    ------------------------------------------------
       NWT REQUIRED            5 OUTER ITERATIONS 
       AND A TOTAL OF         32 INNER ITERATIONS.
    ------------------------------------------------

 NO OUTPUT CONTROL FOR STRESS PERIOD   60   TIME STEP    1
 
 SOLVING FOR HEAD 
                                                   Max.-Head-Change                        Max.-Flux-Residual
  Residual-Control   Outer-Iter.   Inner-Iter.     Column Row Layer    Max.-Head-Change    Column Row Layer    Max.-Flux-Residual            L2-New               L2-Old           Solver-Max-Delh
          0                 1          11            30   53     2       0.3934116617E+01      79   49    1      -0.1509674744E+06      0.8412873281E+06      0.3563095787E+01      0.3934116617E+01
          0                 2           9            78   87     1      -0.4932174658E+00      79   49    1       0.1485158324E+05      0.8442482002E+05      0.8412873281E+06     -0.4932174658E+00
          0                 3           6            87   66     2      -0.3824598264E-01      32   28    2       0.6562497830E+03      0.6966105405E+03      0.8442482002E+05     -0.3824598264E-01
          0                 4           5            32   28     2       0.6109409713E-03      32   28    2       0.5906082678E+02      0.5909388257E+02      0.6966105405E+03      0.6109409713E-03

    ------------------------------------------------
       NWT REQUIRED            4 OUTER ITERATIONS 
       AND A TOTAL OF         31 INNER ITERATIONS.
    ------------------------------------------------

 NO OUTPUT CONTROL FOR STRESS PERIOD   60   TIME STEP    2
 
 SOLVING FOR HEAD 
                                                   Max.-Head-Change                        Max.-Flux-Residual
  Residual-Control   Outer-Iter.   Inner-Iter.     Column Row Layer    Max.-Head-Change    Column Row Layer    Max.-Flux-Residual            L2-New               L2-Old           Solver-Max-Delh
          0                 1          11            87   51     1      -0.3135290488E+01      83   51    1      -0.1227222372E+06      0.7169098693E+06      0.5909388257E+02     -0.3135290488E+01
          0                 2           9            83   60     1      -0.9117544564E+01      77   46    2       0.1807878112E+05      0.7876970480E+05      0.7169098693E+06     -0.9117544564E+01
          0                 3           6            83   60     1       0.5972177364E+00      59   72    1       0.8442165565E+03      0.1279749275E+04      0.7876970480E+05      0.5972177364E+00
          0                 4           2            83   60     1       0.1505465447E-01      83   60    1       0.1693556410E+02      0.1710321902E+02      0.1279749275E+04      0.1505465447E-01
          0                 5           1            83   60     1       0.3782434798E-03      83   60    1       0.4254591675E+00      0.4460592962E+00      0.1710321902E+02      0.3782434798E-03

    ------------------------------------------------
       NWT REQUIRED            5 OUTER ITERATIONS 
       AND A TOTAL OF         29 INNER ITERATIONS.
    ------------------------------------------------

 NO OUTPUT CONTROL FOR STRESS PERIOD   60   TIME STEP    3
 
 SOLVING FOR HEAD 
                                                   Max.-Head-Change                        Max.-Flux-Residual
  Residual-Control   Outer-Iter.   Inner-Iter.     Column Row Layer    Max.-Head-Change    Column Row Layer    Max.-Flux-Residual            L2-New               L2-Old           Solver-Max-Delh
          0                 1          11            88   51     1      -0.2738932224E+01      83   51    1      -0.1049960682E+06      0.6406016774E+06      0.4460592962E+00     -0.2738932224E+01
          0                 2           9            70   55     1      -0.1712739150E+01      83   51    1       0.1031231966E+05      0.6537141676E+05      0.6406016774E+06     -0.1712739150E+01
          0                 3           6            70   55     1       0.1460962373E+00      62   88    1      -0.1049572103E+04      0.1545240967E+04      0.6537141676E+05      0.1460962373E+00
          0                 4           3            59   84     1       0.1801080131E-02      62   88    1      -0.9451154678E+02      0.9476391560E+02      0.1545240967E+04      0.1801080131E-02

    ------------------------------------------------
       NWT REQUIRED            4 OUTER ITERATIONS 
       AND A TOTAL OF         29 INNER ITERATIONS.
    ------------------------------------------------

 NO OUTPUT CONTROL FOR STRESS PERIOD   60   TIME STEP    4
 
 SOLVING FOR HEAD 
                                                   Max.-Head-Change                        Max.-Flux-Residual
  Residual-Control   Outer-Iter.   Inner-Iter.     Column Row Layer    Max.-Head-Change    Column Row Layer    Max.-Flux-Residual            L2-New               L2-Old           Solver-Max-Delh
          0                 1          11            88   51     1      -0.2481667506E+01      88   51    1      -0.9146768447E+05      0.5892827888E+06      0.9476391560E+02     -0.2481667506E+01
          0                 2           9            65    4     2      -0.3273077041E+01      88   51    1       0.8982218684E+04      0.5954008842E+05      0.5892827888E+06     -0.3273077041E+01
          0                 3           5            65    4     2       0.1050926704E+00      62   88    1       0.5064138042E+03      0.6324937384E+03      0.5954008842E+05      0.1050926704E+00
          0                 4           2            65    4     2       0.6165408028E-02      65    4    2       0.2654014099E+01      0.3822032477E+01      0.6324937384E+03      0.6165408028E-02

    ------------------------------------------------
       NWT REQUIRED            4 OUTER ITERATIONS 
       AND A TOTAL OF         27 INNER ITERATIONS.
    ------------------------------------------------

 NO OUTPUT CONTROL FOR STRESS PERIOD   60   TIME STEP    5
 
 SOLVING FOR HEAD 
                                                   Max.-Head-Change                        Max.-Flux-Residual
  Residual-Control   Outer-Iter.   Inner-Iter.     Column Row Layer    Max.-Head-Change    Column Row Layer    Max.-Flux-Residual            L2-New               L2-Old           Solver-Max-Delh
          0                 1          10            65    4     2      -0.2418942404E+01      88   51    1      -0.8286331749E+05      0.5527529088E+06      0.3822032477E+01     -0.2418942404E+01
          0                 2           9            78   69     1      -0.1187760607E+01      60   66    2       0.9580606636E+04      0.5616536400E+05      0.5527529088E+06     -0.1187760607E+01
          0                 3           5            78   69     1       0.1001185075E+00      78   69    1       0.4284087138E+03      0.6004722262E+03      0.5616536400E+05      0.1001185075E+00
          0                 4           2            78   69     1       0.6706908688E-03      65  101    1      -0.7565013237E+01      0.8163071634E+01      0.6004722262E+03      0.6706908688E-03

    ------------------------------------------------
       NWT REQUIRED            4 OUTER ITERATIONS 
       AND A TOTAL OF         26 INNER ITERATIONS.
    ------------------------------------------------

 NO OUTPUT CONTROL FOR STRESS PERIOD   60   TIME STEP    6
 
 SOLVING FOR HEAD 
                                                   Max.-Head-Change                        Max.-Flux-Residual
  Residual-Control   Outer-Iter.   Inner-Iter.     Column Row Layer    Max.-Head-Change    Column Row Layer    Max.-Flux-Residual            L2-New               L2-Old           Solver-Max-Delh
          0                 1          10            77   68     1      -0.3671172447E+01      88   51    1      -0.7539215959E+05      0.5266389986E+06      0.8163071634E+01     -0.3671172447E+01
          0                 2           9            92   77     2      -0.2432634717E+02      88   51    1       0.1479360312E+05      0.5532849903E+05      0.5266389986E+06     -0.2432634717E+02
          0                 3           6            92   77     2       0.2007527583E+00      51   38    1      -0.1271556831E+04      0.1581126397E+04      0.5532849903E+05      0.2007527583E+00
          0                 4           4            92   77     2       0.1638940013E-01      51   38    1      -0.1144865926E+03      0.1146794661E+03      0.1581126397E+04      0.1638940013E-01
          0                 5           3            92   77     2       0.1336584014E-02      51   38    1      -0.1029272597E+02      0.1031772041E+02      0.1146794661E+03      0.1336584014E-02

    ------------------------------------------------
       NWT REQUIRED            5 OUTER ITERATIONS 
       AND A TOTAL OF         32 INNER ITERATIONS.
    ------------------------------------------------

 NO OUTPUT CONTROL FOR STRESS PERIOD   60   TIME STEP    7
 
 SOLVING FOR HEAD 
                                                   Max.-Head-Change                        Max.-Flux-Residual
  Residual-Control   Outer-Iter.   Inner-Iter.     Column Row Layer    Max.-Head-Change    Column Row Layer    Max.-Flux-Residual            L2-New               L2-Old           Solver-Max-Delh
          0                 1          10            92   77     2      -0.6115896360E+02      92   52    1      -0.7013566750E+05      0.5057008476E+06      0.1031772041E+02     -0.6115896360E+02
          0                 2           9            92   77     2       0.8522752125E+01      71   57    1      -0.7648883822E+04      0.5184728177E+05      0.5057008476E+06      0.8522752125E+01
          0                 3           6            92   77     2       0.3856003362E+00      58   79    2      -0.3006818129E+04      0.3140941633E+04      0.5184728177E+05      0.3856003362E+00
          0                 4           3            92   77     2       0.1707338354E-01      58   79    2      -0.2710325796E+03      0.2713485600E+03      0.3140941633E+04      0.1707338354E-01
          0                 5           2            58   79     1      -0.8399197736E-03      58   79    2      -0.2436932435E+02      0.2438115449E+02      0.2713485600E+03     -0.8399197736E-03

    ------------------------------------------------
       NWT REQUIRED            5 OUTER ITERATIONS 
       AND A TOTAL OF         30 INNER ITERATIONS.
    ------------------------------------------------

 NO OUTPUT CONTROL FOR STRESS PERIOD   60   TIME STEP    8
 
 SOLVING FOR HEAD 
                                                   Max.-Head-Change                        Max.-Flux-Residual
  Residual-Control   Outer-Iter.   Inner-Iter.     Column Row Layer    Max.-Head-Change    Column Row Layer    Max.-Flux-Residual            L2-New               L2-Old           Solver-Max-Delh
          0                 1          10            92   52     1      -0.1855619341E+01      92   52    1      -0.6582859181E+05      0.4898024277E+06      0.2438115449E+02     -0.1855619341E+01
          0                 2           9            58   79     2      -0.3560917707E+01      59   59    2       0.1415489954E+05      0.5338996580E+05      0.4898024277E+06     -0.3560917707E+01
          0                 3           6            58   79     2       0.2016551181E+00      55   41    1       0.1058597691E+04      0.1219195975E+04      0.5338996580E+05      0.2016551181E+00
          0                 4           3            58   79     1       0.6888462082E-02      58   79    1       0.6027657524E+01      0.8342961168E+01      0.1219195975E+04      0.6888462082E-02

    ------------------------------------------------
       NWT REQUIRED            4 OUTER ITERATIONS 
       AND A TOTAL OF         28 INNER ITERATIONS.
    ------------------------------------------------

 NO OUTPUT CONTROL FOR STRESS PERIOD   60   TIME STEP    9
 
 SOLVING FOR HEAD 
                                                   Max.-Head-Change                        Max.-Flux-Residual
  Residual-Control   Outer-Iter.   Inner-Iter.     Column Row Layer    Max.-Head-Change    Column Row Layer    Max.-Flux-Residual            L2-New               L2-Old           Solver-Max-Delh
          0                 1          10            92   52     1      -0.1613157706E+01      92   52    1      -0.6150893781E+05      0.4767283360E+06      0.8342961168E+01     -0.1613157706E+01
          0                 2           9            81   45     1       0.2446589526E+00      60   55    2       0.9792928359E+04      0.5008114754E+05      0.4767283360E+06      0.2446589526E+00
          0                 3           5            64   53     1       0.1140034399E-01      64   53    1       0.9035268636E+02      0.1238063086E+03      0.5008114754E+05      0.1140034399E-01
          0                 4           2            85   85     2      -0.1988331277E-03      64   53    1       0.3589947205E+00      0.5359839405E+00      0.1238063086E+03     -0.1988331277E-03

    ------------------------------------------------
       NWT REQUIRED            4 OUTER ITERATIONS 
       AND A TOTAL OF         26 INNER ITERATIONS.
    ------------------------------------------------

 NO OUTPUT CONTROL FOR STRESS PERIOD   60   TIME STEP   10
 
 SOLVING FOR HEAD 
                                                   Max.-Head-Change                        Max.-Flux-Residual
  Residual-Control   Outer-Iter.   Inner-Iter.     Column Row Layer    Max.-Head-Change    Column Row Layer    Max.-Flux-Residual            L2-New               L2-Old           Solver-Max-Delh
          0                 1          10            89   51     1      -0.1444193294E+01      92   52    1      -0.5401149196E+05      0.4654847344E+06      0.5359839405E+00     -0.1444193294E+01
          0                 2           9            62   63     1      -0.2503823063E+00      60   58    2       0.1102767216E+05      0.4900287070E+05      0.4654847344E+06     -0.2503823063E+00
          0                 3           6            62   63     1       0.2246196810E-01      62   63    1       0.4940712092E+03      0.7015342640E+03      0.4900287070E+05      0.2246196810E-01
          0                 4           4            85   85     2      -0.1985445725E-03      18   14    2       0.4152089021E+02      0.4363389815E+02      0.7015342640E+03     -0.1985445725E-03

    ------------------------------------------------
       NWT REQUIRED            4 OUTER ITERATIONS 
       AND A TOTAL OF         29 INNER ITERATIONS.
    ------------------------------------------------

 NO OUTPUT CONTROL FOR STRESS PERIOD   60   TIME STEP   11

 INTERPOLATION FOR HEAD OBS# 3697, ID 1479-60-363  CHANGED BECAUSE AT LEAST ONE
 NEIGHBORING CELL REQUIRED FOR INTERPOLATION IS DRY OR INACTIVE (OBS2BAS7SE)
 
 SOLVING FOR HEAD 
                                                   Max.-Head-Change                        Max.-Flux-Residual
  Residual-Control   Outer-Iter.   Inner-Iter.     Column Row Layer    Max.-Head-Change    Column Row Layer    Max.-Flux-Residual            L2-New               L2-Old           Solver-Max-Delh
          0                 1          10            89   51     1      -0.1355886305E+01      89   51    1      -0.4818959772E+05      0.4561201732E+06      0.4363389815E+02     -0.1355886305E+01
          0                 2           9            89   51     1       0.1602943832E+00      89   51    1       0.6876201216E+04      0.4632345868E+05      0.4561201732E+06      0.1602943832E+00
          0                 3           5            72   60     2       0.9435209404E-02      72   60    2       0.1514849276E+03      0.1580632726E+03      0.4632345868E+05      0.9435209404E-02

    ------------------------------------------------
       NWT REQUIRED            3 OUTER ITERATIONS 
       AND A TOTAL OF         24 INNER ITERATIONS.
    ------------------------------------------------

 OUTPUT CONTROL FOR STRESS PERIOD   60   TIME STEP   12
    SAVE BUDGET
    SAVE HEAD FOR LAYERS:   1  2  3
 UBDSV1 SAVING "         STORAGE" ON UNIT  39 AT TIME STEP 12, STRESS PERIOD  60
 UBDSV2 SAVING "   CONSTANT HEAD" ON UNIT  39 AT TIME STEP 12, STRESS PERIOD  60
 UBDSV1 SAVING "FLOW RIGHT FACE " ON UNIT  39 AT TIME STEP 12, STRESS PERIOD  60
 UBDSV1 SAVING "FLOW FRONT FACE " ON UNIT  39 AT TIME STEP 12, STRESS PERIOD  60
 UBDSV1 SAVING "FLOW LOWER FACE " ON UNIT  39 AT TIME STEP 12, STRESS PERIOD  60
 UBDSV4 SAVING "           WELLS" ON UNIT  39 AT TIME STEP 12, STRESS PERIOD  60
 UBDSV3 SAVING "              ET" ON UNIT  39 AT TIME STEP 12, STRESS PERIOD  60
 UBDSV3 SAVING "        RECHARGE" ON UNIT  39 AT TIME STEP 12, STRESS PERIOD  60

 INTERPOLATION FOR HEAD OBS# 1657, ID 2303-61-4    CHANGED BECAUSE AT LEAST ONE
 NEIGHBORING CELL REQUIRED FOR INTERPOLATION IS DRY OR INACTIVE (OBS2BAS7SE)

 INTERPOLATION FOR HEAD OBS# 5427, ID 846-61-25    CHANGED BECAUSE AT LEAST ONE
 NEIGHBORING CELL REQUIRED FOR INTERPOLATION IS DRY OR INACTIVE (OBS2BAS7SE)

 HEAD WILL BE SAVED ON UNIT   31 AT END OF TIME STEP   12, STRESS PERIOD   60
1
  VOLUMETRIC BUDGET FOR ENTIRE MODEL AT END OF TIME STEP   12, STRESS PERIOD  60
  ------------------------------------------------------------------------------

     CUMULATIVE VOLUMES      L**3       RATES FOR THIS TIME STEP      L**3/T
     ------------------                 ------------------------

           IN:                                      IN:
           ---                                      ---
             STORAGE     =389017403392.0000               STORAGE     =    18767794.0000
       CONSTANT HEAD     = 39839830016.0000         CONSTANT HEAD     =     2628548.5000
               WELLS     = 26859440128.0000                 WELLS     =     1225642.0000
                  ET     =           0.0000                    ET     =           0.0000
            RECHARGE     =449675362304.0000              RECHARGE     =    19979862.0000

                TOTAL IN =905392029696.0000                  TOTAL IN =    42601848.0000

          OUT:                                     OUT:
          ----                                     ----
             STORAGE     = 87470096384.0000               STORAGE     =     3729366.7500
       CONSTANT HEAD     = 67842023424.0000         CONSTANT HEAD     =     1677432.8750
               WELLS     =727620780032.0000                 WELLS     =    36557952.0000
                  ET     = 22458372096.0000                    ET     =      637093.7500
            RECHARGE     =           0.0000              RECHARGE     =           0.0000

               TOTAL OUT =905391308800.0000                 TOTAL OUT =    42601844.0000

                IN - OUT =      720896.0000                  IN - OUT =           4.0000

     PERCENT DISCREPANCY =           0.00         PERCENT DISCREPANCY =           0.00






         TIME SUMMARY AT END OF TIME STEP   12 IN STRESS PERIOD   60
                    SECONDS     MINUTES      HOURS       DAYS        YEARS
                    -----------------------------------------------------------
   TIME STEP LENGTH 2.62800E+06  43800.      730.00      30.417     8.32763E-02
 STRESS PERIOD TIME 3.15360E+07 5.25600E+05  8760.0      365.00     0.99932    
         TOTAL TIME 1.89345E+09 3.15575E+07 5.25959E+05  21915.      60.000    
1
1
                            STRESS PERIOD NO.   61, LENGTH =   366.0000    
                            -----------------------------------------------

                              NUMBER OF TIME STEPS =    12

                               MULTIPLIER FOR DELT =     1.000

                            INITIAL TIME STEP SIZE =   30.50000    

   1685 WELLS

 REUSING SURF FROM LAST STRESS PERIOD

 REUSING EVTR FROM LAST STRESS PERIOD

 REUSING EXDP FROM LAST STRESS PERIOD



                           RECHARGE
 READING ON UNIT   16 WITH FORMAT: (15F5.0)            


     63 TIME-VARIANT SPECIFIED-HEAD CELLS
 
 SOLVING FOR HEAD 
                                                   Max.-Head-Change                        Max.-Flux-Residual
  Residual-Control   Outer-Iter.   Inner-Iter.     Column Row Layer    Max.-Head-Change    Column Row Layer    Max.-Flux-Residual            L2-New               L2-Old           Solver-Max-Delh
          0                 1          11            65    2     2       0.9179356105E+02      67   51    2      -0.2061689918E+06      0.1136904619E+07      0.1580632726E+03      0.9179356105E+02
          0                 2          10            65    7     2      -0.5243386284E+02      65    7    2      -0.1444658013E+07      0.2112493686E+07      0.1136904619E+07     -0.5243386284E+02
          0                 3           7            92   77     2      -0.3306521341E+02      92   77    2      -0.9996141675E+06      0.1002822089E+07      0.2112493686E+07     -0.3306521341E+02
          0                 4           5            91   77     2       0.9836573504E+01      65    3    2      -0.2342305987E+06      0.3745582606E+06      0.1002822089E+07      0.9836573504E+01
          0                 5           4            91   77     2       0.1496104682E+01      65    3    2      -0.4069580818E+05      0.6496693207E+05      0.3745582606E+06      0.1496104682E+01
          0                 6           3            65    3     2      -0.2237045986E+00      65    3    2      -0.6977490171E+04      0.1113000258E+05      0.6496693207E+05     -0.2237045986E+00
          0                 7           2            66    5     2       0.4154022091E-01      65    3    2      -0.1192490355E+04      0.1902210738E+04      0.1113000258E+05      0.4154022091E-01
          0                 8           2            67    4     2       0.1248379613E-01      65    3    2      -0.2035844765E+03      0.3248996680E+03      0.1902210738E+04      0.1248379613E-01
          0                 9           2            67    4     2       0.3750753745E-02      65    3    2      -0.3473305446E+02      0.5550488340E+02      0.3248996680E+03      0.3750753745E-02

    ------------------------------------------------
       NWT REQUIRED            9 OUTER ITERATIONS 
       AND A TOTAL OF         46 INNER ITERATIONS.
    ------------------------------------------------

 NO OUTPUT CONTROL FOR STRESS PERIOD   61   TIME STEP    1

 INTERPOLATION FOR HEAD OBS#  638, ID 3014-61-59   CHANGED BECAUSE AT LEAST ONE
 NEIGHBORING CELL REQUIRED FOR INTERPOLATION IS DRY OR INACTIVE (OBS2BAS7SE)

 INTERPOLATION FOR HEAD OBS# 1403, ID 2840-61-56   CHANGED BECAUSE AT LEAST ONE
 NEIGHBORING CELL REQUIRED FOR INTERPOLATION IS DRY OR INACTIVE (OBS2BAS7SE)

 INTERPOLATION FOR HEAD OBS# 1742, ID 2618-61-53   CHANGED BECAUSE AT LEAST ONE
 NEIGHBORING CELL REQUIRED FOR INTERPOLATION IS DRY OR INACTIVE (OBS2BAS7SE)

 INTERPOLATION FOR HEAD OBS# 1854, ID 2604-61-55   CHANGED BECAUSE AT LEAST ONE
 NEIGHBORING CELL REQUIRED FOR INTERPOLATION IS DRY OR INACTIVE (OBS2BAS7SE)

 INTERPOLATION FOR HEAD OBS# 1868, ID 2606-61-55   CHANGED BECAUSE AT LEAST ONE
 NEIGHBORING CELL REQUIRED FOR INTERPOLATION IS DRY OR INACTIVE (OBS2BAS7SE)

 INTERPOLATION FOR HEAD OBS# 2183, ID 2355-61-40   CHANGED BECAUSE AT LEAST ONE
 NEIGHBORING CELL REQUIRED FOR INTERPOLATION IS DRY OR INACTIVE (OBS2BAS7SE)

 INTERPOLATION FOR HEAD OBS# 3195, ID 2443-61-54   CHANGED BECAUSE AT LEAST ONE
 NEIGHBORING CELL REQUIRED FOR INTERPOLATION IS DRY OR INACTIVE (OBS2BAS7SE)

 INTERPOLATION FOR HEAD OBS# 3221, ID 2189-61-55   CHANGED BECAUSE AT LEAST ONE
 NEIGHBORING CELL REQUIRED FOR INTERPOLATION IS DRY OR INACTIVE (OBS2BAS7SE)

 INTERPOLATION FOR HEAD OBS# 5398, ID 1705-61-60   CHANGED BECAUSE AT LEAST ONE
 NEIGHBORING CELL REQUIRED FOR INTERPOLATION IS DRY OR INACTIVE (OBS2BAS7SE)

 INTERPOLATION FOR HEAD OBS# 5402, ID 1530-61-60   CHANGED BECAUSE AT LEAST ONE
 NEIGHBORING CELL REQUIRED FOR INTERPOLATION IS DRY OR INACTIVE (OBS2BAS7SE)

 INTERPOLATION FOR HEAD OBS# 6241, ID 1164-61-60   CHANGED BECAUSE AT LEAST ONE
 NEIGHBORING CELL REQUIRED FOR INTERPOLATION IS DRY OR INACTIVE (OBS2BAS7SE)

 INTERPOLATION FOR HEAD OBS# 7375, ID 451-61-52    CHANGED BECAUSE AT LEAST ONE
 NEIGHBORING CELL REQUIRED FOR INTERPOLATION IS DRY OR INACTIVE (OBS2BAS7SE)

 INTERPOLATION FOR HEAD OBS# 7528, ID 269-61-61    CHANGED BECAUSE AT LEAST ONE
 NEIGHBORING CELL REQUIRED FOR INTERPOLATION IS DRY OR INACTIVE (OBS2BAS7SE)
 
 SOLVING FOR HEAD 
                                                   Max.-Head-Change                        Max.-Flux-Residual
  Residual-Control   Outer-Iter.   Inner-Iter.     Column Row Layer    Max.-Head-Change    Column Row Layer    Max.-Flux-Residual            L2-New               L2-Old           Solver-Max-Delh
          0                 1          11            70   63     3      -0.6773433608E+01      82   72    2      -0.1489231742E+06      0.7904518379E+06      0.5550488340E+02     -0.6773433608E+01
          0                 2          10            36   70     2      -0.5104958254E+01      70   19    1      -0.4296195533E+05      0.9682346577E+05      0.7904518379E+06     -0.5104958254E+01
          0                 3           6            37   70     2       0.7580705266E+00      24   22    2      -0.1346230425E+04      0.2531112375E+04      0.9682346577E+05      0.7580705266E+00
          0                 4           5            37   70     2       0.1431708123E-01      34   25    2       0.7403773294E+02      0.1036053744E+03      0.2531112375E+04      0.1431708123E-01
          0                 5           3            37   70     2       0.2670902131E-03      34   25    2       0.6655972503E+01      0.8829183000E+01      0.1036053744E+03      0.2670902131E-03

    ------------------------------------------------
       NWT REQUIRED            5 OUTER ITERATIONS 
       AND A TOTAL OF         35 INNER ITERATIONS.
    ------------------------------------------------

 NO OUTPUT CONTROL FOR STRESS PERIOD   61   TIME STEP    2

 INTERPOLATION FOR HEAD OBS#  197, ID 3228-61-73   CHANGED BECAUSE AT LEAST ONE
 NEIGHBORING CELL REQUIRED FOR INTERPOLATION IS DRY OR INACTIVE (OBS2BAS7SE)
 
 SOLVING FOR HEAD 
                                                   Max.-Head-Change                        Max.-Flux-Residual
  Residual-Control   Outer-Iter.   Inner-Iter.     Column Row Layer    Max.-Head-Change    Column Row Layer    Max.-Flux-Residual            L2-New               L2-Old           Solver-Max-Delh
          0                 1          11            82   72     2      -0.3497431317E+01      82   72    2      -0.1175459579E+06      0.6626712412E+06      0.8829183000E+01     -0.3497431317E+01
          0                 2           9            70   17     1      -0.5259059607E+00      33   25    1      -0.2944580647E+05      0.8293996944E+05      0.6626712412E+06     -0.5259059607E+00
          0                 3           6            34   25     2      -0.2419929800E-01      34   25    2      -0.2188767572E+04      0.2466943794E+04      0.8293996944E+05     -0.2419929800E-01
          0                 4           2            92   52     1       0.5300240981E-03      92   52    1       0.2543244153E+02      0.2557585996E+02      0.2466943794E+04      0.5300240981E-03

    ------------------------------------------------
       NWT REQUIRED            4 OUTER ITERATIONS 
       AND A TOTAL OF         28 INNER ITERATIONS.
    ------------------------------------------------

 NO OUTPUT CONTROL FOR STRESS PERIOD   61   TIME STEP    3
 
 SOLVING FOR HEAD 
                                                   Max.-Head-Change                        Max.-Flux-Residual
  Residual-Control   Outer-Iter.   Inner-Iter.     Column Row Layer    Max.-Head-Change    Column Row Layer    Max.-Flux-Residual            L2-New               L2-Old           Solver-Max-Delh
          0                 1          11            71   16     1       0.3293022132E+01      82   72    2      -0.9462397870E+05      0.5871979260E+06      0.2557585996E+02      0.3293022132E+01
          0                 2           9            67   51     1      -0.4071539252E+01      69   21    1      -0.3182066060E+05      0.7216539315E+05      0.5871979260E+06     -0.4071539252E+01
          0                 3           6            67   51     1       0.3471807807E+00      67   51    1       0.2280546728E+04      0.2502861266E+04      0.7216539315E+05      0.3471807807E+00
          0                 4           3            67   51     1       0.1837467697E-02      67   51    1       0.1183421097E+02      0.1438352211E+02      0.2502861266E+04      0.1837467697E-02

    ------------------------------------------------
       NWT REQUIRED            4 OUTER ITERATIONS 
       AND A TOTAL OF         29 INNER ITERATIONS.
    ------------------------------------------------

 NO OUTPUT CONTROL FOR STRESS PERIOD   61   TIME STEP    4
 
 SOLVING FOR HEAD 
                                                   Max.-Head-Change                        Max.-Flux-Residual
  Residual-Control   Outer-Iter.   Inner-Iter.     Column Row Layer    Max.-Head-Change    Column Row Layer    Max.-Flux-Residual            L2-New               L2-Old           Solver-Max-Delh
          0                 1          11            71   16     1       0.3111337786E+01      71   16    1       0.8204869981E+05      0.5367823741E+06      0.1438352211E+02      0.3111337786E+01
          0                 2           9            71   16     1      -0.2845895091E+00      33   25    2       0.1928797022E+05      0.5853661515E+05      0.5367823741E+06     -0.2845895091E+00
          0                 3           6            33   25     2      -0.1934344138E-01      33   25    2      -0.1868901648E+04      0.1987163952E+04      0.5853661515E+05     -0.1934344138E-01
          0                 4           2            35   70     2       0.4314983038E-03      59   69    1       0.9783837199E+00      0.1843427877E+01      0.1987163952E+04      0.4314983038E-03

    ------------------------------------------------
       NWT REQUIRED            4 OUTER ITERATIONS 
       AND A TOTAL OF         28 INNER ITERATIONS.
    ------------------------------------------------

 NO OUTPUT CONTROL FOR STRESS PERIOD   61   TIME STEP    5
 
 SOLVING FOR HEAD 
                                                   Max.-Head-Change                        Max.-Flux-Residual
  Residual-Control   Outer-Iter.   Inner-Iter.     Column Row Layer    Max.-Head-Change    Column Row Layer    Max.-Flux-Residual            L2-New               L2-Old           Solver-Max-Delh
          0                 1          11            35   70     2      -0.5246334006E+01      71   16    1       0.7752830563E+05      0.5014239446E+06      0.1843427877E+01     -0.5246334006E+01
          0                 2           9            80   45     1      -0.1963273844E+01      32   27    1      -0.2335954701E+05      0.5747557866E+05      0.5014239446E+06     -0.1963273844E+01
          0                 3           5            80   45     1       0.1441953168E+00      80   45    1       0.2492399416E+03      0.4028473772E+03      0.5747557866E+05      0.1441953168E+00
          0                 4           2            80   45     1       0.2520246674E-02      80   45    1       0.4285203491E+01      0.4530378650E+01      0.4028473772E+03      0.2520246674E-02

    ------------------------------------------------
       NWT REQUIRED            4 OUTER ITERATIONS 
       AND A TOTAL OF         27 INNER ITERATIONS.
    ------------------------------------------------

 NO OUTPUT CONTROL FOR STRESS PERIOD   61   TIME STEP    6
 
 SOLVING FOR HEAD 
                                                   Max.-Head-Change                        Max.-Flux-Residual
  Residual-Control   Outer-Iter.   Inner-Iter.     Column Row Layer    Max.-Head-Change    Column Row Layer    Max.-Flux-Residual            L2-New               L2-Old           Solver-Max-Delh
          0                 1          11            72   62     1      -0.3668080077E+01      71   16    1       0.7327452747E+05      0.4743053564E+06      0.4530378650E+01     -0.3668080077E+01
          0                 2           9            72   62     1       0.2739252622E+00      66   19    1      -0.8525118648E+04      0.4910882309E+05      0.4743053564E+06      0.2739252622E+00
          0                 3           5            60   51     2      -0.9815939528E-02      60   51    2      -0.3267091833E+03      0.3967474642E+03      0.4910882309E+05     -0.9815939528E-02

    ------------------------------------------------
       NWT REQUIRED            3 OUTER ITERATIONS 
       AND A TOTAL OF         25 INNER ITERATIONS.
    ------------------------------------------------

 NO OUTPUT CONTROL FOR STRESS PERIOD   61   TIME STEP    7
 
 SOLVING FOR HEAD 
                                                   Max.-Head-Change                        Max.-Flux-Residual
  Residual-Control   Outer-Iter.   Inner-Iter.     Column Row Layer    Max.-Head-Change    Column Row Layer    Max.-Flux-Residual            L2-New               L2-Old           Solver-Max-Delh
          0                 1          11            71   16     1       0.2620878879E+01      71   16    1       0.6923901265E+05      0.4532313549E+06      0.3967474642E+03      0.2620878879E+01
          0                 2           9            58   81     2      -0.1872670363E+01      30   26    1      -0.1414567420E+05      0.4886822410E+05      0.4532313549E+06     -0.1872670363E+01
          0                 3           5            58   81     2       0.1274279523E+00      58   81    2       0.3598438312E+03      0.4615519333E+03      0.4886822410E+05      0.1274279523E+00
          0                 4           3            58   81     1       0.2987374677E-02      86   65    2       0.2290438874E+02      0.2341355976E+02      0.4615519333E+03      0.2987374677E-02

    ------------------------------------------------
       NWT REQUIRED            4 OUTER ITERATIONS 
       AND A TOTAL OF         28 INNER ITERATIONS.
    ------------------------------------------------

 NO OUTPUT CONTROL FOR STRESS PERIOD   61   TIME STEP    8
 
 SOLVING FOR HEAD 
                                                   Max.-Head-Change                        Max.-Flux-Residual
  Residual-Control   Outer-Iter.   Inner-Iter.     Column Row Layer    Max.-Head-Change    Column Row Layer    Max.-Flux-Residual            L2-New               L2-Old           Solver-Max-Delh
          0                 1          11            71   16     1       0.2472908011E+01      71   16    1       0.6530873875E+05      0.4361063786E+06      0.2341355976E+02      0.2472908011E+01
          0                 2           9            73   15     3       0.2779608051E+01      73   15    3       0.2053224853E+05      0.4946339029E+05      0.4361063786E+06      0.2779608051E+01
          0                 3           6            73   15     3      -0.2520707876E+00      73   15    3      -0.2053224891E+04      0.2271020452E+04      0.4946339029E+05     -0.2520707876E+00
          0                 4           2            72   60     1       0.5624576337E-03      73   15    1      -0.1630905339E+01      0.2816190699E+01      0.2271020452E+04      0.5624576337E-03

    ------------------------------------------------
       NWT REQUIRED            4 OUTER ITERATIONS 
       AND A TOTAL OF         28 INNER ITERATIONS.
    ------------------------------------------------

 NO OUTPUT CONTROL FOR STRESS PERIOD   61   TIME STEP    9
 
 SOLVING FOR HEAD 
                                                   Max.-Head-Change                        Max.-Flux-Residual
  Residual-Control   Outer-Iter.   Inner-Iter.     Column Row Layer    Max.-Head-Change    Column Row Layer    Max.-Flux-Residual            L2-New               L2-Old           Solver-Max-Delh
          0                 1          11            69   63     1      -0.3743607612E+01      71   16    1       0.6163454305E+05      0.4230016529E+06      0.2816190699E+01     -0.3743607612E+01
          0                 2           9            70   19     2       0.6642753884E+00      70   19    2       0.8712645399E+04      0.4472428671E+05      0.4230016529E+06      0.6642753884E+00
          0                 3           6            70   19     2      -0.6063630154E-01      77   70    1      -0.1147060986E+04      0.1763085291E+04      0.4472428671E+05     -0.6063630154E-01
          0                 4           3            77   70     1      -0.2466925767E-02      77   70    1      -0.1032639534E+03      0.1032765939E+03      0.1763085291E+04     -0.2466925767E-02

    ------------------------------------------------
       NWT REQUIRED            4 OUTER ITERATIONS 
       AND A TOTAL OF         29 INNER ITERATIONS.
    ------------------------------------------------

 NO OUTPUT CONTROL FOR STRESS PERIOD   61   TIME STEP   10
 
 SOLVING FOR HEAD 
                                                   Max.-Head-Change                        Max.-Flux-Residual
  Residual-Control   Outer-Iter.   Inner-Iter.     Column Row Layer    Max.-Head-Change    Column Row Layer    Max.-Flux-Residual            L2-New               L2-Old           Solver-Max-Delh
          0                 1          10            70   19     2       0.4561366853E+01      71   16    1       0.5820398898E+05      0.4122220351E+06      0.1032765939E+03      0.4561366853E+01
          0                 2           9            86   84     2      -0.1239342400E+01      62   85    1      -0.1992909777E+05      0.4737077061E+05      0.4122220351E+06     -0.1239342400E+01
          0                 3           6            68   10     2       0.5278909744E-01      77   70    1       0.5544816138E+03      0.9176889863E+03      0.4737077061E+05      0.5278909744E-01
          0                 4           3            68   10     2       0.2872037923E-02      62   64    1      -0.4241793193E+02      0.5206038899E+02      0.9176889863E+03      0.2872037923E-02

    ------------------------------------------------
       NWT REQUIRED            4 OUTER ITERATIONS 
       AND A TOTAL OF         28 INNER ITERATIONS.
    ------------------------------------------------

 NO OUTPUT CONTROL FOR STRESS PERIOD   61   TIME STEP   11
 
 SOLVING FOR HEAD 
                                                   Max.-Head-Change                        Max.-Flux-Residual
  Residual-Control   Outer-Iter.   Inner-Iter.     Column Row Layer    Max.-Head-Change    Column Row Layer    Max.-Flux-Residual            L2-New               L2-Old           Solver-Max-Delh
          0                 1          10            86   84     2      -0.3589457391E+01      70   19    1       0.6792393940E+05      0.4040828071E+06      0.5206038899E+02     -0.3589457391E+01
          0                 2           9            72   15     2       0.2144070858E+01      72   15    2       0.1881274928E+05      0.4981929706E+05      0.4040828071E+06      0.2144070858E+01
          0                 3           6            34   69     2      -0.1997229682E+00      34   69    2      -0.6324937832E+04      0.6739876677E+04      0.4981929706E+05     -0.1997229682E+00
          0                 4           4            34   69     2      -0.1799759782E-01      34   69    2      -0.5697878576E+03      0.5698371586E+03      0.6739876677E+04     -0.1799759782E-01
          0                 5           3            34   69     2      -0.1618329577E-02      34   69    2      -0.5122836496E+02      0.5123202756E+02      0.5698371586E+03     -0.1618329577E-02

    ------------------------------------------------
       NWT REQUIRED            5 OUTER ITERATIONS 
       AND A TOTAL OF         32 INNER ITERATIONS.
    ------------------------------------------------

 OUTPUT CONTROL FOR STRESS PERIOD   61   TIME STEP   12
    SAVE BUDGET
 UBDSV1 SAVING "         STORAGE" ON UNIT  39 AT TIME STEP 12, STRESS PERIOD  61
 UBDSV2 SAVING "   CONSTANT HEAD" ON UNIT  39 AT TIME STEP 12, STRESS PERIOD  61
 UBDSV1 SAVING "FLOW RIGHT FACE " ON UNIT  39 AT TIME STEP 12, STRESS PERIOD  61
 UBDSV1 SAVING "FLOW FRONT FACE " ON UNIT  39 AT TIME STEP 12, STRESS PERIOD  61
 UBDSV1 SAVING "FLOW LOWER FACE " ON UNIT  39 AT TIME STEP 12, STRESS PERIOD  61
 UBDSV4 SAVING "           WELLS" ON UNIT  39 AT TIME STEP 12, STRESS PERIOD  61
 UBDSV3 SAVING "              ET" ON UNIT  39 AT TIME STEP 12, STRESS PERIOD  61
 UBDSV3 SAVING "        RECHARGE" ON UNIT  39 AT TIME STEP 12, STRESS PERIOD  61
1
  VOLUMETRIC BUDGET FOR ENTIRE MODEL AT END OF TIME STEP   12, STRESS PERIOD  61
  ------------------------------------------------------------------------------

     CUMULATIVE VOLUMES      L**3       RATES FOR THIS TIME STEP      L**3/T
     ------------------                 ------------------------

           IN:                                      IN:
           ---                                      ---
             STORAGE     =393747398656.0000               STORAGE     =    11393081.0000
       CONSTANT HEAD     = 40739500032.0000         CONSTANT HEAD     =     2397187.2500
               WELLS     = 27308025856.0000                 WELLS     =     1225642.0000
                  ET     =           0.0000                    ET     =           0.0000
            RECHARGE     =461805682688.0000              RECHARGE     =    33142994.0000

                TOTAL IN =923600617472.0000                  TOTAL IN =    48158904.0000

          OUT:                                     OUT:
          ----                                     ----
             STORAGE     = 90994196480.0000               STORAGE     =     8057783.0000
       CONSTANT HEAD     = 68410048512.0000         CONSTANT HEAD     =     1468628.2500
               WELLS     =741456019456.0000                 WELLS     =    37798284.0000
                  ET     = 22739582976.0000                    ET     =      834219.1250
            RECHARGE     =           0.0000              RECHARGE     =           0.0000

               TOTAL OUT =923599896576.0000                 TOTAL OUT =    48158916.0000

                IN - OUT =      720896.0000                  IN - OUT =         -12.0000

     PERCENT DISCREPANCY =           0.00         PERCENT DISCREPANCY =          -0.00






         TIME SUMMARY AT END OF TIME STEP   12 IN STRESS PERIOD   61
                    SECONDS     MINUTES      HOURS       DAYS        YEARS
                    -----------------------------------------------------------
   TIME STEP LENGTH 2.63520E+06  43920.      732.00      30.500     8.35044E-02
 STRESS PERIOD TIME 3.16224E+07 5.27040E+05  8784.0      366.00      1.0021    
         TOTAL TIME 1.92507E+09 3.20846E+07 5.34743E+05  22281.      61.002    
1
1
                            STRESS PERIOD NO.   62, LENGTH =   365.0000    
                            -----------------------------------------------

                              NUMBER OF TIME STEPS =    12

                               MULTIPLIER FOR DELT =     1.000

                            INITIAL TIME STEP SIZE =   30.41667    

   1669 WELLS

 REUSING SURF FROM LAST STRESS PERIOD

 REUSING EVTR FROM LAST STRESS PERIOD

 REUSING EXDP FROM LAST STRESS PERIOD



                           RECHARGE
 READING ON UNIT   16 WITH FORMAT: (15F5.0)            


     63 TIME-VARIANT SPECIFIED-HEAD CELLS
 
 SOLVING FOR HEAD 
                                                   Max.-Head-Change                        Max.-Flux-Residual
  Residual-Control   Outer-Iter.   Inner-Iter.     Column Row Layer    Max.-Head-Change    Column Row Layer    Max.-Flux-Residual            L2-New               L2-Old           Solver-Max-Delh
          0                 1          11            65    2     2      -0.9121255503E+02      30   52    2      -0.4017353757E+06      0.1502546350E+07      0.5123202756E+02     -0.9121255503E+02
          0                 2          10            34   69     2      -0.6321665671E+01      72   54    1      -0.5443406431E+05      0.1848370544E+06      0.1502546350E+07     -0.6321665671E+01
          0                 3           7            34   69     2       0.4127889404E+00      66   25    1       0.3768514467E+04      0.4557509458E+04      0.1848370544E+06      0.4127889404E+00
          0                 4           3            34   69     2       0.1065296119E-01      14   11    2       0.1617524980E+02      0.3102808644E+02      0.4557509458E+04      0.1065296119E-01
          0                 5           2            65    2     2       0.5686434986E-03      14   11    2       0.1045491859E+01      0.1990321639E+01      0.3102808644E+02      0.5686434986E-03

    ------------------------------------------------
       NWT REQUIRED            5 OUTER ITERATIONS 
       AND A TOTAL OF         33 INNER ITERATIONS.
    ------------------------------------------------

 NO OUTPUT CONTROL FOR STRESS PERIOD   62   TIME STEP    1
 
 SOLVING FOR HEAD 
                                                   Max.-Head-Change                        Max.-Flux-Residual
  Residual-Control   Outer-Iter.   Inner-Iter.     Column Row Layer    Max.-Head-Change    Column Row Layer    Max.-Flux-Residual            L2-New               L2-Old           Solver-Max-Delh
          0                 1          11            59   85     3       0.8610406131E+01      30   52    2      -0.2301578645E+06      0.1033039038E+07      0.1990321639E+01      0.8610406131E+01
          0                 2           9            59   84     2      -0.2699137238E+01      59   84    2      -0.7339737575E+05      0.1299901485E+06      0.1033039038E+07     -0.2699137238E+01
          0                 3           6            66   19     1       0.9832591615E-01      60   55    1      -0.5998391852E+04      0.6331712162E+04      0.1299901485E+06      0.9832591615E-01
          0                 4           4            60   55     1      -0.6175880930E-02      60   55    1      -0.5407384172E+03      0.5410998425E+03      0.6331712162E+04     -0.6175880930E-02

    ------------------------------------------------
       NWT REQUIRED            4 OUTER ITERATIONS 
       AND A TOTAL OF         30 INNER ITERATIONS.
    ------------------------------------------------

 NO OUTPUT CONTROL FOR STRESS PERIOD   62   TIME STEP    2
 
 SOLVING FOR HEAD 
                                                   Max.-Head-Change                        Max.-Flux-Residual
  Residual-Control   Outer-Iter.   Inner-Iter.     Column Row Layer    Max.-Head-Change    Column Row Layer    Max.-Flux-Residual            L2-New               L2-Old           Solver-Max-Delh
          0                 1          10            59   84     3       0.6597133032E+01      30   52    2      -0.1540602113E+06      0.8579320189E+06      0.5410998425E+03      0.6597133032E+01
          0                 2           9            92   77     2      -0.1238466939E+02      33   24    1      -0.2992400261E+05      0.9693998518E+05      0.8579320189E+06     -0.1238466939E+02
          0                 3           6            65    6     2       0.3870934882E+00      69   21    1       0.1608778585E+04      0.2319915220E+04      0.9693998518E+05      0.3870934882E+00
          0                 4           4            65    6     2       0.1581167582E-01      65    6    2       0.9842742044E+01      0.1905919649E+02      0.2319915220E+04      0.1581167582E-01
          0                 5           3            92   77     2       0.7011343300E-03      65    6    3       0.8600795493E+00      0.1482815114E+01      0.1905919649E+02      0.7011343300E-03

    ------------------------------------------------
       NWT REQUIRED            5 OUTER ITERATIONS 
       AND A TOTAL OF         32 INNER ITERATIONS.
    ------------------------------------------------

 NO OUTPUT CONTROL FOR STRESS PERIOD   62   TIME STEP    3
 
 SOLVING FOR HEAD 
                                                   Max.-Head-Change                        Max.-Flux-Residual
  Residual-Control   Outer-Iter.   Inner-Iter.     Column Row Layer    Max.-Head-Change    Column Row Layer    Max.-Flux-Residual            L2-New               L2-Old           Solver-Max-Delh
          0                 1          10            92   77     2      -0.8474003461E+02      30   52    2      -0.1108869845E+06      0.7605442339E+06      0.1482815114E+01     -0.8474003461E+02
          0                 2           9            92   77     2       0.1709996488E+02      72   15    2       0.2562552144E+05      0.8574545044E+05      0.7605442339E+06      0.1709996488E+02
          0                 3           6            92   77     2       0.7420898619E+00      70   55    2      -0.6275473473E+03      0.1188932442E+04      0.8574545044E+05      0.7420898619E+00
          0                 4           3            92   77     2       0.3080877476E-01      92   77    2       0.2040192242E+02      0.2093389480E+02      0.1188932442E+04      0.3080877476E-01
          0                 5           2            92   77     2       0.1284025890E-02      92   77    2       0.8502973126E+00      0.9223811001E+00      0.2093389480E+02      0.1284025890E-02

    ------------------------------------------------
       NWT REQUIRED            5 OUTER ITERATIONS 
       AND A TOTAL OF         30 INNER ITERATIONS.
    ------------------------------------------------

 NO OUTPUT CONTROL FOR STRESS PERIOD   62   TIME STEP    4
 
 SOLVING FOR HEAD 
                                                   Max.-Head-Change                        Max.-Flux-Residual
  Residual-Control   Outer-Iter.   Inner-Iter.     Column Row Layer    Max.-Head-Change    Column Row Layer    Max.-Flux-Residual            L2-New               L2-Old           Solver-Max-Delh
          0                 1          10            29   52     2      -0.3304446683E+01      30   52    2      -0.8428262275E+05      0.6992353003E+06      0.9223811001E+00     -0.3304446683E+01
          0                 2           9            65    3     2      -0.2249125562E+02      70   19    2       0.2037171318E+05      0.8005563467E+05      0.6992353003E+06     -0.2249125562E+02
          0                 3           6            65    3     2       0.8250197500E+00      36   24    2      -0.9823343620E+03      0.1399109679E+04      0.8005563467E+05      0.8250197500E+00
          0                 4           3            65    3     2       0.4340086061E-01      65    3    2       0.2085412996E+02      0.2296853887E+02      0.1399109679E+04      0.4340086061E-01
          0                 5           2            65    3     2       0.2279230328E-02      65    3    2       0.1094987176E+01      0.1192593132E+01      0.2296853887E+02      0.2279230328E-02

    ------------------------------------------------
       NWT REQUIRED            5 OUTER ITERATIONS 
       AND A TOTAL OF         30 INNER ITERATIONS.
    ------------------------------------------------

 NO OUTPUT CONTROL FOR STRESS PERIOD   62   TIME STEP    5
 
 SOLVING FOR HEAD 
                                                   Max.-Head-Change                        Max.-Flux-Residual
  Residual-Control   Outer-Iter.   Inner-Iter.     Column Row Layer    Max.-Head-Change    Column Row Layer    Max.-Flux-Residual            L2-New               L2-Old           Solver-Max-Delh
          0                 1          10            65    3     2      -0.7068839102E+01      29   52    2      -0.6905309135E+05      0.6554806114E+06      0.1192593132E+01     -0.7068839102E+01
          0                 2           9            65    5     2      -0.2075003936E+02      32   25    1      -0.2393417006E+05      0.7242815357E+05      0.6554806114E+06     -0.2075003936E+02
          0                 3           5            65    5     2       0.9387785174E+00      65    5    2       0.5340020512E+03      0.8073036880E+03      0.7242815357E+05      0.9387785174E+00
          0                 4           3            65    5     2       0.4213706479E-01      65    5    2       0.2379184169E+02      0.2865916160E+02      0.8073036880E+03      0.4213706479E-01
          0                 5           2            65    5     2       0.1887541636E-02      64    5    3       0.1324702464E+01      0.1755970584E+01      0.2865916160E+02      0.1887541636E-02

    ------------------------------------------------
       NWT REQUIRED            5 OUTER ITERATIONS 
       AND A TOTAL OF         29 INNER ITERATIONS.
    ------------------------------------------------

 NO OUTPUT CONTROL FOR STRESS PERIOD   62   TIME STEP    6
 
 SOLVING FOR HEAD 
                                                   Max.-Head-Change                        Max.-Flux-Residual
  Residual-Control   Outer-Iter.   Inner-Iter.     Column Row Layer    Max.-Head-Change    Column Row Layer    Max.-Flux-Residual            L2-New               L2-Old           Solver-Max-Delh
          0                 1          11            65    5     2      -0.1240578242E+02      84   52    1      -0.6361049025E+05      0.6227500005E+06      0.1755970584E+01     -0.1240578242E+02
          0                 2           9            72   59     1      -0.8929295792E+00      84   52    1       0.6303642741E+04      0.6332779772E+05      0.6227500005E+06     -0.8929295792E+00
          0                 3           5            72   59     1       0.7471712788E-01      60   94    2      -0.2087112965E+04      0.2128809494E+04      0.6332779772E+05      0.7471712788E-01
          0                 4           3            60   94     1      -0.4567661113E-02      60   94    2      -0.1879609032E+03      0.1880262174E+03      0.2128809494E+04     -0.4567661113E-02

    ------------------------------------------------
       NWT REQUIRED            4 OUTER ITERATIONS 
       AND A TOTAL OF         28 INNER ITERATIONS.
    ------------------------------------------------

 NO OUTPUT CONTROL FOR STRESS PERIOD   62   TIME STEP    7
 
 SOLVING FOR HEAD 
                                                   Max.-Head-Change                        Max.-Flux-Residual
  Residual-Control   Outer-Iter.   Inner-Iter.     Column Row Layer    Max.-Head-Change    Column Row Layer    Max.-Flux-Residual            L2-New               L2-Old           Solver-Max-Delh
          0                 1          11            29   52     2      -0.2008576008E+01      84   52    1      -0.5995354114E+05      0.5969877528E+06      0.1880262174E+03     -0.2008576008E+01
          0                 2           9            60   94     2      -0.1397809380E+01      62   90    2       0.1944777778E+05      0.6788190725E+05      0.5969877528E+06     -0.1397809380E+01
          0                 3           6            60   94     2       0.1097252705E+00      62   90    1      -0.4190716616E+04      0.4900041026E+04      0.6788190725E+05      0.1097252705E+00
          0                 4           4            62   90     1      -0.5126912944E-02      62   90    1      -0.3778118867E+03      0.4377582001E+03      0.4900041026E+04     -0.5126912944E-02

    ------------------------------------------------
       NWT REQUIRED            4 OUTER ITERATIONS 
       AND A TOTAL OF         30 INNER ITERATIONS.
    ------------------------------------------------

 NO OUTPUT CONTROL FOR STRESS PERIOD   62   TIME STEP    8
 
 SOLVING FOR HEAD 
                                                   Max.-Head-Change                        Max.-Flux-Residual
  Residual-Control   Outer-Iter.   Inner-Iter.     Column Row Layer    Max.-Head-Change    Column Row Layer    Max.-Flux-Residual            L2-New               L2-Old           Solver-Max-Delh
          0                 1          11            29   52     2      -0.1736948820E+01      84   52    1      -0.5674185879E+05      0.5763908027E+06      0.4377582001E+03     -0.1736948820E+01
          0                 2           9            63   57     1      -0.6069668789E+00      69   52    2       0.1291279817E+05      0.6187766061E+05      0.5763908027E+06     -0.6069668789E+00
          0                 3           6            63   57     1       0.5306199739E-01      69   52    2      -0.1291175708E+04      0.1975088204E+04      0.6187766061E+05      0.5306199739E-01
          0                 4           2            85   85     2      -0.1897950885E-03      62   90    1       0.1246463954E+01      0.2097143518E+01      0.1975088204E+04     -0.1897950885E-03

    ------------------------------------------------
       NWT REQUIRED            4 OUTER ITERATIONS 
       AND A TOTAL OF         28 INNER ITERATIONS.
    ------------------------------------------------

 NO OUTPUT CONTROL FOR STRESS PERIOD   62   TIME STEP    9
 
 SOLVING FOR HEAD 
                                                   Max.-Head-Change                        Max.-Flux-Residual
  Residual-Control   Outer-Iter.   Inner-Iter.     Column Row Layer    Max.-Head-Change    Column Row Layer    Max.-Flux-Residual            L2-New               L2-Old           Solver-Max-Delh
          0                 1          11            29   52     2      -0.1517771449E+01      84   52    1      -0.5390470455E+05      0.5599611448E+06      0.2097143518E+01     -0.1517771449E+01
          0                 2           9            35   69     2      -0.7199292264E+01      70   62    2       0.7875784595E+04      0.5767555105E+05      0.5599611448E+06     -0.7199292264E+01
          0                 3           6            35   69     2       0.4542877814E+00      52   45    1      -0.6001650886E+04      0.6047594851E+04      0.5767555105E+05      0.4542877814E+00
          0                 4           4            35   69     2       0.1254690931E-01      52   45    1      -0.5406570103E+03      0.5408446970E+03      0.6047594851E+04      0.1254690931E-01
          0                 5           3            52   45     1      -0.6449217772E-03      52   45    1      -0.4860915565E+02      0.4861222248E+02      0.5408446970E+03     -0.6449217772E-03

    ------------------------------------------------
       NWT REQUIRED            5 OUTER ITERATIONS 
       AND A TOTAL OF         33 INNER ITERATIONS.
    ------------------------------------------------

 NO OUTPUT CONTROL FOR STRESS PERIOD   62   TIME STEP   10
 
 SOLVING FOR HEAD 
                                                   Max.-Head-Change                        Max.-Flux-Residual
  Residual-Control   Outer-Iter.   Inner-Iter.     Column Row Layer    Max.-Head-Change    Column Row Layer    Max.-Flux-Residual            L2-New               L2-Old           Solver-Max-Delh
          0                 1          11            36   69     2      -0.7110755919E+01      84   52    1      -0.5138564285E+05      0.5463378962E+06      0.4861222248E+02     -0.7110755919E+01
          0                 2           9            70   19     1      -0.5928277188E+00      32   25    2       0.1976236259E+05      0.5883900056E+05      0.5463378962E+06     -0.5928277188E+00
          0                 3           6            70   19     1       0.5168817504E-01      32   25    2      -0.1956365260E+04      0.2230492825E+04      0.5883900056E+05      0.5168817504E-01
          0                 4           3            28   64     1       0.6147130555E-03      70   19    1       0.1551332850E+01      0.2502400527E+01      0.2230492825E+04      0.6147130555E-03

    ------------------------------------------------
       NWT REQUIRED            4 OUTER ITERATIONS 
       AND A TOTAL OF         29 INNER ITERATIONS.
    ------------------------------------------------

 NO OUTPUT CONTROL FOR STRESS PERIOD   62   TIME STEP   11
 
 SOLVING FOR HEAD 
                                                   Max.-Head-Change                        Max.-Flux-Residual
  Residual-Control   Outer-Iter.   Inner-Iter.     Column Row Layer    Max.-Head-Change    Column Row Layer    Max.-Flux-Residual            L2-New               L2-Old           Solver-Max-Delh
          0                 1          11            70   19     1      -0.3440818474E+01      84   52    1      -0.4913844709E+05      0.5347904630E+06      0.2502400527E+01     -0.3440818474E+01
          0                 2           9            34   68     2      -0.7845806266E+01      72   15    1      -0.1087563705E+05      0.5671253043E+05      0.5347904630E+06     -0.7845806266E+01
          0                 3           6            34   68     2       0.5422975501E+00      61   43    1       0.2387646450E+04      0.3342246452E+04      0.5671253043E+05      0.5422975501E+00
          0                 4           3            34   68     2       0.1177082972E-01      61   44    1      -0.6924728015E+02      0.7335300411E+02      0.3342246452E+04      0.1177082972E-01
          0                 5           2            34   68     2       0.2542977929E-03      61   44    1      -0.5588869616E+01      0.5615342955E+01      0.7335300411E+02      0.2542977929E-03

    ------------------------------------------------
       NWT REQUIRED            5 OUTER ITERATIONS 
       AND A TOTAL OF         31 INNER ITERATIONS.
    ------------------------------------------------

 OUTPUT CONTROL FOR STRESS PERIOD   62   TIME STEP   12
    SAVE BUDGET
 UBDSV1 SAVING "         STORAGE" ON UNIT  39 AT TIME STEP 12, STRESS PERIOD  62
 UBDSV2 SAVING "   CONSTANT HEAD" ON UNIT  39 AT TIME STEP 12, STRESS PERIOD  62
 UBDSV1 SAVING "FLOW RIGHT FACE " ON UNIT  39 AT TIME STEP 12, STRESS PERIOD  62
 UBDSV1 SAVING "FLOW FRONT FACE " ON UNIT  39 AT TIME STEP 12, STRESS PERIOD  62
 UBDSV1 SAVING "FLOW LOWER FACE " ON UNIT  39 AT TIME STEP 12, STRESS PERIOD  62
 UBDSV4 SAVING "           WELLS" ON UNIT  39 AT TIME STEP 12, STRESS PERIOD  62
 UBDSV3 SAVING "              ET" ON UNIT  39 AT TIME STEP 12, STRESS PERIOD  62
 UBDSV3 SAVING "        RECHARGE" ON UNIT  39 AT TIME STEP 12, STRESS PERIOD  62
1
  VOLUMETRIC BUDGET FOR ENTIRE MODEL AT END OF TIME STEP   12, STRESS PERIOD  62
  ------------------------------------------------------------------------------

     CUMULATIVE VOLUMES      L**3       RATES FOR THIS TIME STEP      L**3/T
     ------------------                 ------------------------

           IN:                                      IN:
           ---                                      ---
             STORAGE     =401759698944.0000               STORAGE     =    20804846.0000
       CONSTANT HEAD     = 41652822016.0000         CONSTANT HEAD     =     2530859.0000
               WELLS     = 27755382784.0000                 WELLS     =     1225642.0000
                  ET     =           0.0000                    ET     =           0.0000
            RECHARGE     =468935081984.0000              RECHARGE     =    19532334.0000

                TOTAL IN =940102975488.0000                  TOTAL IN =    44093680.0000

          OUT:                                     OUT:
          ----                                     ----
             STORAGE     = 93263863808.0000               STORAGE     =     5196712.0000
       CONSTANT HEAD     = 69053833216.0000         CONSTANT HEAD     =     1817141.2500
               WELLS     =754838994944.0000                 WELLS     =    36653524.0000
                  ET     = 22945353728.0000                    ET     =      426306.9688
            RECHARGE     =           0.0000              RECHARGE     =           0.0000

               TOTAL OUT =940101992448.0000                 TOTAL OUT =    44093684.0000

                IN - OUT =      983040.0000                  IN - OUT =          -4.0000

     PERCENT DISCREPANCY =           0.00         PERCENT DISCREPANCY =          -0.00






         TIME SUMMARY AT END OF TIME STEP   12 IN STRESS PERIOD   62
                    SECONDS     MINUTES      HOURS       DAYS        YEARS
                    -----------------------------------------------------------
   TIME STEP LENGTH 2.62800E+06  43800.      730.00      30.417     8.32763E-02
 STRESS PERIOD TIME 3.15360E+07 5.25600E+05  8760.0      365.00     0.99932    
         TOTAL TIME 1.95661E+09 3.26102E+07 5.43503E+05  22646.      62.001    
1
1
                            STRESS PERIOD NO.   63, LENGTH =   365.0000    
                            -----------------------------------------------

                              NUMBER OF TIME STEPS =    12

                               MULTIPLIER FOR DELT =     1.000

                            INITIAL TIME STEP SIZE =   30.41667    

   1621 WELLS

 REUSING SURF FROM LAST STRESS PERIOD

 REUSING EVTR FROM LAST STRESS PERIOD

 REUSING EXDP FROM LAST STRESS PERIOD



                           RECHARGE
 READING ON UNIT   16 WITH FORMAT: (15F5.0)            


     63 TIME-VARIANT SPECIFIED-HEAD CELLS
 
 SOLVING FOR HEAD 
                                                   Max.-Head-Change                        Max.-Flux-Residual
  Residual-Control   Outer-Iter.   Inner-Iter.     Column Row Layer    Max.-Head-Change    Column Row Layer    Max.-Flux-Residual            L2-New               L2-Old           Solver-Max-Delh
          0                 1          11            86   55     3       0.4314621917E+02      29   53    3      -0.3546377850E+06      0.1439441609E+07      0.5615342955E+01      0.4314621917E+02
          0                 2          10            54  116     3      -0.3030528394E+01      74   64    2       0.4756675349E+05      0.1674096137E+06      0.1439441609E+07     -0.3030528394E+01
          0                 3           7            63   93     1      -0.9031701109E-01      63   93    1      -0.4824269412E+04      0.5024570127E+04      0.1674096137E+06     -0.9031701109E-01
          0                 4           4            63   93     1      -0.8167146937E-02      63   93    1      -0.4358811185E+03      0.4365681288E+03      0.5024570127E+04     -0.8167146937E-02

    ------------------------------------------------
       NWT REQUIRED            4 OUTER ITERATIONS 
       AND A TOTAL OF         32 INNER ITERATIONS.
    ------------------------------------------------

 NO OUTPUT CONTROL FOR STRESS PERIOD   63   TIME STEP    1
 
 SOLVING FOR HEAD 
                                                   Max.-Head-Change                        Max.-Flux-Residual
  Residual-Control   Outer-Iter.   Inner-Iter.     Column Row Layer    Max.-Head-Change    Column Row Layer    Max.-Flux-Residual            L2-New               L2-Old           Solver-Max-Delh
          0                 1          11            80   54     3       0.8565904870E+01      33   27    1       0.2138033146E+06      0.9615235347E+06      0.4365681288E+03      0.8565904870E+01
          0                 2          10            33   67     2      -0.5532600692E+01      33   27    1      -0.2308988917E+05      0.9978370407E+05      0.9615235347E+06     -0.5532600692E+01
          0                 3           6            33   67     2       0.2657607113E+00      59   74    1      -0.1629702545E+04      0.2293083180E+04      0.9978370407E+05      0.2657607113E+00
          0                 4           4            33   67     1       0.1152091281E-01      59   74    1      -0.1467283299E+03      0.1472335586E+03      0.2293083180E+04      0.1152091281E-01
          0                 5           3            33   67     1       0.4987850651E-03      59   74    1      -0.1319130832E+02      0.1327707172E+02      0.1472335586E+03      0.4987850651E-03

    ------------------------------------------------
       NWT REQUIRED            5 OUTER ITERATIONS 
       AND A TOTAL OF         34 INNER ITERATIONS.
    ------------------------------------------------

 NO OUTPUT CONTROL FOR STRESS PERIOD   63   TIME STEP    2
 
 SOLVING FOR HEAD 
                                                   Max.-Head-Change                        Max.-Flux-Residual
  Residual-Control   Outer-Iter.   Inner-Iter.     Column Row Layer    Max.-Head-Change    Column Row Layer    Max.-Flux-Residual            L2-New               L2-Old           Solver-Max-Delh
          0                 1          11            28   52     2      -0.3964364685E+01      33   27    1       0.1423728829E+06      0.8313900158E+06      0.1327707172E+02     -0.3964364685E+01
          0                 2          10            89   67     2       0.4582969840E+00      89   67    2       0.1899642011E+05      0.8617912644E+05      0.8313900158E+06      0.4582969840E+00
          0                 3           6            59   74     1       0.1233659673E-01      14   12    2      -0.4534957336E+03      0.6368944034E+03      0.8617912644E+05      0.1233659673E-01
          0                 4           3            33   67     1       0.3391831166E-03      25   57    3      -0.2543377019E+01      0.2785613986E+01      0.6368944034E+03      0.3391831166E-03

    ------------------------------------------------
       NWT REQUIRED            4 OUTER ITERATIONS 
       AND A TOTAL OF         30 INNER ITERATIONS.
    ------------------------------------------------

 NO OUTPUT CONTROL FOR STRESS PERIOD   63   TIME STEP    3
 
 SOLVING FOR HEAD 
                                                   Max.-Head-Change                        Max.-Flux-Residual
  Residual-Control   Outer-Iter.   Inner-Iter.     Column Row Layer    Max.-Head-Change    Column Row Layer    Max.-Flux-Residual            L2-New               L2-Old           Solver-Max-Delh
          0                 1          11            28   52     2      -0.3442173140E+01      61   85    2       0.1049324155E+06      0.7669246106E+06      0.2785613986E+01     -0.3442173140E+01
          0                 2          10            84   52     2       0.7016299193E+00      84   52    2       0.3224596119E+05      0.8647609137E+05      0.7669246106E+06      0.7016299193E+00
          0                 3           6            32   49     2       0.9393541650E-02      30   25    2      -0.9803459372E+03      0.1108426022E+04      0.8647609137E+05      0.9393541650E-02

    ------------------------------------------------
       NWT REQUIRED            3 OUTER ITERATIONS 
       AND A TOTAL OF         27 INNER ITERATIONS.
    ------------------------------------------------

 NO OUTPUT CONTROL FOR STRESS PERIOD   63   TIME STEP    4
 
 SOLVING FOR HEAD 
                                                   Max.-Head-Change                        Max.-Flux-Residual
  Residual-Control   Outer-Iter.   Inner-Iter.     Column Row Layer    Max.-Head-Change    Column Row Layer    Max.-Flux-Residual            L2-New               L2-Old           Solver-Max-Delh
          0                 1          11            61   85     1       0.3211324466E+01      61   85    2       0.1027521979E+06      0.7271459930E+06      0.2418444956E+01      0.3211324466E+01
          0                 2          10            30   80     2      -0.4241866388E+00      44   31    2       0.1547381930E+05      0.7682659463E+05      0.7271459930E+06     -0.4241866388E+00
          0                 3           6            30   80     2       0.3041717391E-01      60   54    1       0.3984903824E+03      0.4215002486E+03      0.7682659463E+05      0.3041717391E-01
          0                 4           2            30   80     2       0.5840109829E-03      30   80    2       0.8434275473E+00      0.1081607233E+01      0.4215002486E+03      0.5840109829E-03

    ------------------------------------------------
       NWT REQUIRED            4 OUTER ITERATIONS 
       AND A TOTAL OF         29 INNER ITERATIONS.
    ------------------------------------------------

 NO OUTPUT CONTROL FOR STRESS PERIOD   63   TIME STEP    5
 
 SOLVING FOR HEAD 
                                                   Max.-Head-Change                        Max.-Flux-Residual
  Residual-Control   Outer-Iter.   Inner-Iter.     Column Row Layer    Max.-Head-Change    Column Row Layer    Max.-Flux-Residual            L2-New               L2-Old           Solver-Max-Delh
          0                 1          11            61   85     1       0.3069042850E+01      61   85    2       0.9966144789E+05      0.6992301356E+06      0.1081607233E+01      0.3069042850E+01
          0                 2          10            92   67     1      -0.3096883911E+01      92   67    1      -0.1511770033E+05      0.7461790460E+05      0.6992301356E+06     -0.3096883911E+01
          0                 3           6            92   67     1       0.2572992457E+00      92   67    1       0.1383726297E+04      0.1581656855E+04      0.7461790460E+05      0.2572992457E+00
          0                 4           3            57   27     2       0.2879074853E-02      31   70    2      -0.2515436274E+02      0.2777674109E+02      0.1581656855E+04      0.2879074853E-02

    ------------------------------------------------
       NWT REQUIRED            4 OUTER ITERATIONS 
       AND A TOTAL OF         30 INNER ITERATIONS.
    ------------------------------------------------

 NO OUTPUT CONTROL FOR STRESS PERIOD   63   TIME STEP    6
 
 SOLVING FOR HEAD 
                                                   Max.-Head-Change                        Max.-Flux-Residual
  Residual-Control   Outer-Iter.   Inner-Iter.     Column Row Layer    Max.-Head-Change    Column Row Layer    Max.-Flux-Residual            L2-New               L2-Old           Solver-Max-Delh
          0                 1          11            77   46     1      -0.5984607594E+01      61   85    2       0.9594931941E+05      0.6775366344E+06      0.2777674109E+02     -0.5984607594E+01
          0                 2          10            31   70     2      -0.2512725045E+01      33   23    1      -0.2541512527E+05      0.7628690069E+05      0.6775366344E+06     -0.2512725045E+01
          0                 3           6            31   70     2       0.1851752885E+00      72   63    1      -0.2341035984E+04      0.3246657375E+04      0.7628690069E+05      0.1851752885E+00
          0                 4           3            72   63     1      -0.7453188271E-02      72   63    1      -0.2108936089E+03      0.2109975569E+03      0.3246657375E+04     -0.7453188271E-02

    ------------------------------------------------
       NWT REQUIRED            4 OUTER ITERATIONS 
       AND A TOTAL OF         30 INNER ITERATIONS.
    ------------------------------------------------

 NO OUTPUT CONTROL FOR STRESS PERIOD   63   TIME STEP    7
 
 SOLVING FOR HEAD 
                                                   Max.-Head-Change                        Max.-Flux-Residual
  Residual-Control   Outer-Iter.   Inner-Iter.     Column Row Layer    Max.-Head-Change    Column Row Layer    Max.-Flux-Residual            L2-New               L2-Old           Solver-Max-Delh
          0                 1          11            61   85     1       0.2762786346E+01      61   85    2       0.9196475160E+05      0.6606672479E+06      0.2109975569E+03      0.2762786346E+01
          0                 2          10            72   63     1      -0.2745221826E+01      34   24    1      -0.2559902370E+05      0.7874590657E+05      0.6606672479E+06     -0.2745221826E+01
          0                 3           7            72   63     1       0.2235501926E+00      37   24    2       0.3365260299E+04      0.3438098766E+04      0.7874590657E+05      0.2235501926E+00
          0                 4           5            37   69     2       0.4290862755E-02      37   24    2       0.3028108456E+03      0.3029296001E+03      0.3438098766E+04      0.4290862755E-02

    ------------------------------------------------
       NWT REQUIRED            4 OUTER ITERATIONS 
       AND A TOTAL OF         33 INNER ITERATIONS.
    ------------------------------------------------

 NO OUTPUT CONTROL FOR STRESS PERIOD   63   TIME STEP    8
 
 SOLVING FOR HEAD 
                                                   Max.-Head-Change                        Max.-Flux-Residual
  Residual-Control   Outer-Iter.   Inner-Iter.     Column Row Layer    Max.-Head-Change    Column Row Layer    Max.-Flux-Residual            L2-New               L2-Old           Solver-Max-Delh
          0                 1          11            37   69     2      -0.3143344843E+01      61   85    2       0.8767915082E+05      0.6452699567E+06      0.3029296001E+03     -0.3143344843E+01
          0                 2          10            25   54     3       0.2675784561E+00      54   41    2       0.1866908206E+05      0.7026899204E+05      0.6452699567E+06      0.2675784561E+00
          0                 3           7            53   40     1      -0.3483601256E-01      34   24    2       0.3399916428E+04      0.4584325800E+04      0.7026899204E+05     -0.3483601256E-01
          0                 4           6            53   40     1      -0.3138834487E-02      34   24    2       0.3059499559E+03      0.3979343723E+03      0.4584325800E+04     -0.3138834487E-02

    ------------------------------------------------
       NWT REQUIRED            4 OUTER ITERATIONS 
       AND A TOTAL OF         34 INNER ITERATIONS.
    ------------------------------------------------

 NO OUTPUT CONTROL FOR STRESS PERIOD   63   TIME STEP    9
 
 SOLVING FOR HEAD 
                                                   Max.-Head-Change                        Max.-Flux-Residual
  Residual-Control   Outer-Iter.   Inner-Iter.     Column Row Layer    Max.-Head-Change    Column Row Layer    Max.-Flux-Residual            L2-New               L2-Old           Solver-Max-Delh
          0                 1          11            75   47     1      -0.2932340962E+01      61   85    2       0.8335017405E+05      0.6313652036E+06      0.3979343723E+03     -0.2932340962E+01
          0                 2          10            53   40     1      -0.1332603350E+01      34   24    2       0.2589547913E+05      0.7358737527E+05      0.6313652036E+06     -0.1332603350E+01
          0                 3           6            53   40     1       0.1168904413E+00      34   24    2      -0.2580266379E+04      0.3687403331E+04      0.7358737527E+05      0.1168904413E+00
          0                 4           4            26   54     2      -0.7283784504E-03      26   54    2      -0.3057362058E+02      0.3603511843E+02      0.3687403331E+04     -0.7283784504E-03

    ------------------------------------------------
       NWT REQUIRED            4 OUTER ITERATIONS 
       AND A TOTAL OF         31 INNER ITERATIONS.
    ------------------------------------------------

 NO OUTPUT CONTROL FOR STRESS PERIOD   63   TIME STEP   10
 
 SOLVING FOR HEAD 
                                                   Max.-Head-Change                        Max.-Flux-Residual
  Residual-Control   Outer-Iter.   Inner-Iter.     Column Row Layer    Max.-Head-Change    Column Row Layer    Max.-Flux-Residual            L2-New               L2-Old           Solver-Max-Delh
          0                 1          11            61   85     1       0.2329765264E+01      61   85    2       0.7909023527E+05      0.6206381622E+06      0.3603511843E+02      0.2329765264E+01
          0                 2          10            69   47     1      -0.2182765058E+01      33   22    1      -0.1729952769E+05      0.6891265107E+05      0.6206381622E+06     -0.2182765058E+01
          0                 3           6            69   47     1       0.1837567652E+00      69   47    1       0.1139613915E+04      0.1925363931E+04      0.6891265107E+05      0.1837567652E+00
          0                 4           2            83   52     1       0.2109148369E-02      87   52    1      -0.6380951174E+02      0.6471404389E+02      0.1925363931E+04      0.2109148369E-02

    ------------------------------------------------
       NWT REQUIRED            4 OUTER ITERATIONS 
       AND A TOTAL OF         29 INNER ITERATIONS.
    ------------------------------------------------

 NO OUTPUT CONTROL FOR STRESS PERIOD   63   TIME STEP   11
 
 SOLVING FOR HEAD 
                                                   Max.-Head-Change                        Max.-Flux-Residual
  Residual-Control   Outer-Iter.   Inner-Iter.     Column Row Layer    Max.-Head-Change    Column Row Layer    Max.-Flux-Residual            L2-New               L2-Old           Solver-Max-Delh
          0                 1          11            83   52     1      -0.1139569614E+02      61   85    2       0.7496835671E+05      0.6102244948E+06      0.6471404389E+02     -0.1139569614E+02
          0                 2           9            87   52     1      -0.8716516248E+00      87   52    1      -0.1113513468E+05      0.6400547212E+05      0.6102244948E+06     -0.8716516248E+00
          0                 3           5            87   52     1       0.7686226503E-01      87   52    1       0.1078935363E+04      0.1087951879E+04      0.6400547212E+05      0.7686226503E-01
          0                 4           2            87   52     1       0.2131276488E-03      87   52    1       0.2887196809E+01      0.2938775360E+01      0.1087951879E+04      0.2131276488E-03

    ------------------------------------------------
       NWT REQUIRED            4 OUTER ITERATIONS 
       AND A TOTAL OF         27 INNER ITERATIONS.
    ------------------------------------------------

 OUTPUT CONTROL FOR STRESS PERIOD   63   TIME STEP   12
    SAVE BUDGET
 UBDSV1 SAVING "         STORAGE" ON UNIT  39 AT TIME STEP 12, STRESS PERIOD  63
 UBDSV2 SAVING "   CONSTANT HEAD" ON UNIT  39 AT TIME STEP 12, STRESS PERIOD  63
 UBDSV1 SAVING "FLOW RIGHT FACE " ON UNIT  39 AT TIME STEP 12, STRESS PERIOD  63
 UBDSV1 SAVING "FLOW FRONT FACE " ON UNIT  39 AT TIME STEP 12, STRESS PERIOD  63
 UBDSV1 SAVING "FLOW LOWER FACE " ON UNIT  39 AT TIME STEP 12, STRESS PERIOD  63
 UBDSV4 SAVING "           WELLS" ON UNIT  39 AT TIME STEP 12, STRESS PERIOD  63
 UBDSV3 SAVING "              ET" ON UNIT  39 AT TIME STEP 12, STRESS PERIOD  63
 UBDSV3 SAVING "        RECHARGE" ON UNIT  39 AT TIME STEP 12, STRESS PERIOD  63
1
  VOLUMETRIC BUDGET FOR ENTIRE MODEL AT END OF TIME STEP   12, STRESS PERIOD  63
  ------------------------------------------------------------------------------

     CUMULATIVE VOLUMES      L**3       RATES FOR THIS TIME STEP      L**3/T
     ------------------                 ------------------------

           IN:                                      IN:
           ---                                      ---
             STORAGE     =410005831680.0000               STORAGE     =    21781310.0000
       CONSTANT HEAD     = 42587906048.0000         CONSTANT HEAD     =     2548237.7500
               WELLS     = 28202739712.0000                 WELLS     =     1225642.0000
                  ET     =           0.0000                    ET     =           0.0000
            RECHARGE     =476406972416.0000              RECHARGE     =    20470828.0000

                TOTAL IN =957203480576.0000                  TOTAL IN =    46026016.0000

          OUT:                                     OUT:
          ----                                     ----
             STORAGE     = 96149159936.0000               STORAGE     =     7178147.0000
       CONSTANT HEAD     = 69724102656.0000         CONSTANT HEAD     =     1837469.8750
               WELLS     =768285868032.0000                 WELLS     =    36832432.0000
                  ET     = 23043420160.0000                    ET     =      177969.5938
            RECHARGE     =           0.0000              RECHARGE     =           0.0000

               TOTAL OUT =957202563072.0000                 TOTAL OUT =    46026016.0000

                IN - OUT =      917504.0000                  IN - OUT =           0.0000

     PERCENT DISCREPANCY =           0.00         PERCENT DISCREPANCY =           0.00






         TIME SUMMARY AT END OF TIME STEP   12 IN STRESS PERIOD   63
                    SECONDS     MINUTES      HOURS       DAYS        YEARS
                    -----------------------------------------------------------
   TIME STEP LENGTH 2.62800E+06  43800.      730.00      30.417     8.32763E-02
 STRESS PERIOD TIME 3.15360E+07 5.25600E+05  8760.0      365.00     0.99932    
         TOTAL TIME 1.98815E+09 3.31358E+07 5.52263E+05  23011.      63.001    
1
1
                            STRESS PERIOD NO.   64, LENGTH =   365.0000    
                            -----------------------------------------------

                              NUMBER OF TIME STEPS =    12

                               MULTIPLIER FOR DELT =     1.000

                            INITIAL TIME STEP SIZE =   30.41667    

   1566 WELLS

 REUSING SURF FROM LAST STRESS PERIOD

 REUSING EVTR FROM LAST STRESS PERIOD

 REUSING EXDP FROM LAST STRESS PERIOD



                           RECHARGE
 READING ON UNIT   16 WITH FORMAT: (15F5.0)            


     63 TIME-VARIANT SPECIFIED-HEAD CELLS
 
 SOLVING FOR HEAD 
                                                   Max.-Head-Change                        Max.-Flux-Residual
  Residual-Control   Outer-Iter.   Inner-Iter.     Column Row Layer    Max.-Head-Change    Column Row Layer    Max.-Flux-Residual            L2-New               L2-Old           Solver-Max-Delh
          0                 1          12            65    2     2       0.9173035501E+02      29   52    3      -0.7108579518E+06      0.1652754468E+07      0.2938775360E+01      0.9173035501E+02
          0                 2          10            65    5     2      -0.1927035989E+02      65    5    2      -0.5117444333E+06      0.8038411189E+06      0.1652754468E+07     -0.1927035989E+02
          0                 3           7            66    5     2       0.2124727752E+01      69   21    1      -0.7461860197E+04      0.9703080349E+04      0.8038411189E+06      0.2124727752E+01
          0                 4           5            66    5     2       0.3223669760E+00      65    4    2       0.2196836312E+03      0.3304642484E+03      0.9703080349E+04      0.3223669760E+00
          0                 5           3            66    5     2       0.4840889238E-01      66    5    2       0.2024761393E+02      0.3576545781E+02      0.3304642484E+03      0.4840889238E-01
          0                 6           2            66    5     2       0.7264936944E-02      66    5    2       0.3038420199E+01      0.4308113519E+01      0.3576545781E+02      0.7264936944E-02

    ------------------------------------------------
       NWT REQUIRED            6 OUTER ITERATIONS 
       AND A TOTAL OF         39 INNER ITERATIONS.
    ------------------------------------------------

 NO OUTPUT CONTROL FOR STRESS PERIOD   64   TIME STEP    1
 
 SOLVING FOR HEAD 
                                                   Max.-Head-Change                        Max.-Flux-Residual
  Residual-Control   Outer-Iter.   Inner-Iter.     Column Row Layer    Max.-Head-Change    Column Row Layer    Max.-Flux-Residual            L2-New               L2-Old           Solver-Max-Delh
          0                 1          11            29   51     2       0.1181660594E+02      29   51    2       0.3355383827E+06      0.9492182385E+06      0.4308113519E+01      0.1181660594E+02
          0                 2          10            29   51     2      -0.1220526848E+01      29   51    2      -0.4105616362E+05      0.1034923989E+06      0.9492182385E+06     -0.1220526848E+01
          0                 3           6            78   52     1       0.6052622359E-01      61   82    2      -0.1446576759E+04      0.1694849941E+04      0.1034923989E+06      0.6052622359E-01
          0                 4           3            78   52     1       0.1165282074E-02      64    6    3       0.5323410917E+01      0.8855254171E+01      0.1694849941E+04      0.1165282074E-02

    ------------------------------------------------
       NWT REQUIRED            4 OUTER ITERATIONS 
       AND A TOTAL OF         30 INNER ITERATIONS.
    ------------------------------------------------

 NO OUTPUT CONTROL FOR STRESS PERIOD   64   TIME STEP    2
 
 SOLVING FOR HEAD 
                                                   Max.-Head-Change                        Max.-Flux-Residual
  Residual-Control   Outer-Iter.   Inner-Iter.     Column Row Layer    Max.-Head-Change    Column Row Layer    Max.-Flux-Residual            L2-New               L2-Old           Solver-Max-Delh
          0                 1          11            29   51     2       0.8273164118E+01      29   51    2       0.2427386527E+06      0.7950728639E+06      0.8855254171E+01      0.8273164118E+01
          0                 2           9            73   15     3       0.1160841583E+01      29   51    2      -0.3179639822E+05      0.8655043637E+05      0.7950728639E+06      0.1160841583E+01
          0                 3           6            73   15     3      -0.1053398860E+00      73   15    3      -0.9218152380E+03      0.1313175705E+04      0.8655043637E+05     -0.1053398860E+00
          0                 4           3            82   60     1       0.4253518816E-03      30   51    2       0.2179581104E+01      0.2896355465E+01      0.1313175705E+04      0.4253518816E-03

    ------------------------------------------------
       NWT REQUIRED            4 OUTER ITERATIONS 
       AND A TOTAL OF         29 INNER ITERATIONS.
    ------------------------------------------------

 NO OUTPUT CONTROL FOR STRESS PERIOD   64   TIME STEP    3
 
 SOLVING FOR HEAD 
                                                   Max.-Head-Change                        Max.-Flux-Residual
  Residual-Control   Outer-Iter.   Inner-Iter.     Column Row Layer    Max.-Head-Change    Column Row Layer    Max.-Flux-Residual            L2-New               L2-Old           Solver-Max-Delh
          0                 1          11            29   51     2       0.5569363339E+01      29   51    2       0.1686271907E+06      0.7077895690E+06      0.2896355465E+01      0.5569363339E+01
          0                 2           9            29   51     2      -0.5687661697E+00      29   51    2      -0.1991840461E+05      0.7618355706E+05      0.7077895690E+06     -0.5687661697E+00
          0                 3           6            74   64     1       0.2927581255E-01      51   42    1       0.1009464772E+04      0.1527057501E+04      0.7618355706E+05      0.2927581255E-01
          0                 4           4            74   64     1       0.3213795850E-03      23   22    2       0.4649700671E+02      0.4655006994E+02      0.1527057501E+04      0.3213795850E-03

    ------------------------------------------------
       NWT REQUIRED            4 OUTER ITERATIONS 
       AND A TOTAL OF         30 INNER ITERATIONS.
    ------------------------------------------------

 NO OUTPUT CONTROL FOR STRESS PERIOD   64   TIME STEP    4
 
 SOLVING FOR HEAD 
                                                   Max.-Head-Change                        Max.-Flux-Residual
  Residual-Control   Outer-Iter.   Inner-Iter.     Column Row Layer    Max.-Head-Change    Column Row Layer    Max.-Flux-Residual            L2-New               L2-Old           Solver-Max-Delh
          0                 1          10            29   51     2       0.3741551963E+01      29   51    2       0.1146083749E+06      0.6541503806E+06      0.4655006994E+02      0.3741551963E+01
          0                 2           9            82   49     1      -0.3134103335E+01      29   51    2      -0.1267553507E+05      0.6899713487E+05      0.6541503806E+06     -0.3134103335E+01
          0                 3           6            82   49     1       0.2346689539E+00      54   41    1       0.1021188485E+04      0.1534568618E+04      0.6899713487E+05      0.2346689539E+00
          0                 4           3            82   49     1       0.3759172635E-02      82   49    1       0.9708229057E+01      0.1048426820E+02      0.1534568618E+04      0.3759172635E-02

    ------------------------------------------------
       NWT REQUIRED            4 OUTER ITERATIONS 
       AND A TOTAL OF         28 INNER ITERATIONS.
    ------------------------------------------------

 NO OUTPUT CONTROL FOR STRESS PERIOD   64   TIME STEP    5
 
 SOLVING FOR HEAD 
                                                   Max.-Head-Change                        Max.-Flux-Residual
  Residual-Control   Outer-Iter.   Inner-Iter.     Column Row Layer    Max.-Head-Change    Column Row Layer    Max.-Flux-Residual            L2-New               L2-Old           Solver-Max-Delh
          0                 1          10            82   49     1      -0.3728420821E+01      61   85    2       0.8111935514E+05      0.6184040672E+06      0.1048426820E+02     -0.3728420821E+01
          0                 2           9            61   25     2      -0.2371739037E+01      62   96    2       0.1882967263E+05      0.7055391168E+05      0.6184040672E+06     -0.2371739037E+01
          0                 3           6            61   25     2       0.1799673357E+00      29   24    2      -0.1012151251E+04      0.1514942424E+04      0.7055391168E+05      0.1799673357E+00
          0                 4           2            61   25     2       0.2678070877E-02      91   67    1       0.6083804350E+01      0.8339000578E+01      0.1514942424E+04      0.2678070877E-02

    ------------------------------------------------
       NWT REQUIRED            4 OUTER ITERATIONS 
       AND A TOTAL OF         27 INNER ITERATIONS.
    ------------------------------------------------

 NO OUTPUT CONTROL FOR STRESS PERIOD   64   TIME STEP    6
 
 SOLVING FOR HEAD 
                                                   Max.-Head-Change                        Max.-Flux-Residual
  Residual-Control   Outer-Iter.   Inner-Iter.     Column Row Layer    Max.-Head-Change    Column Row Layer    Max.-Flux-Residual            L2-New               L2-Old           Solver-Max-Delh
          0                 1          10            70   17     2       0.2532412543E+01      61   85    2       0.7839044237E+05      0.5924957774E+06      0.8339000578E+01      0.2532412543E+01
          0                 2           9            71   11     2      -0.4250287049E+01      62   86    2       0.1571681580E+05      0.6277748904E+05      0.5924957774E+06     -0.4250287049E+01
          0                 3           7            71   11     2       0.4428570349E+00      70   19    2       0.1069268414E+05      0.1086205198E+05      0.6277748904E+05      0.4428570349E+00
          0                 4           6            30   46     1       0.3629337619E-01      70   19    2       0.9617352472E+03      0.9653113150E+03      0.1086205198E+05      0.3629337619E-01
          0                 5           5            70   19     2       0.1881177316E-02      70   19    2       0.8645513648E+02      0.8681450473E+02      0.9653113150E+03      0.1881177316E-02

    ------------------------------------------------
       NWT REQUIRED            5 OUTER ITERATIONS 
       AND A TOTAL OF         37 INNER ITERATIONS.
    ------------------------------------------------

 NO OUTPUT CONTROL FOR STRESS PERIOD   64   TIME STEP    7
 
 SOLVING FOR HEAD 
                                                   Max.-Head-Change                        Max.-Flux-Residual
  Residual-Control   Outer-Iter.   Inner-Iter.     Column Row Layer    Max.-Head-Change    Column Row Layer    Max.-Flux-Residual            L2-New               L2-Old           Solver-Max-Delh
          0                 1          11            30   47     2      -0.3950350058E+01      61   85    2       0.7502917179E+05      0.5742470209E+06      0.8681450473E+02     -0.3950350058E+01
          0                 2           9            70   19     2       0.3862756352E+01      70   19    2       0.4303029900E+05      0.7225254023E+05      0.5742470209E+06      0.3862756352E+01
          0                 3           7            71   19     2       0.6191331264E+00      70   19    2      -0.7534786339E+04      0.8239590217E+04      0.7225254023E+05      0.6191331264E+00
          0                 4           5            71   19     2       0.5996231235E-01      71   19    2       0.2500713560E+03      0.2631093505E+03      0.8239590217E+04      0.5996231235E-01
          0                 5           3            71   19     2       0.5801810033E-02      71   19    2       0.2413776864E+02      0.2520241048E+02      0.2631093505E+03      0.5801810033E-02

    ------------------------------------------------
       NWT REQUIRED            5 OUTER ITERATIONS 
       AND A TOTAL OF         35 INNER ITERATIONS.
    ------------------------------------------------

 NO OUTPUT CONTROL FOR STRESS PERIOD   64   TIME STEP    8
 
 SOLVING FOR HEAD 
                                                   Max.-Head-Change                        Max.-Flux-Residual
  Residual-Control   Outer-Iter.   Inner-Iter.     Column Row Layer    Max.-Head-Change    Column Row Layer    Max.-Flux-Residual            L2-New               L2-Old           Solver-Max-Delh
          0                 1          10            70   19     1       0.2585404571E+01      70   19    1       0.7359317820E+05      0.5610730370E+06      0.2520241048E+02      0.2585404571E+01
          0                 2           9            72   15     2       0.1763977392E+01      71   19    2      -0.1751107460E+05      0.6462456030E+05      0.5610730370E+06      0.1763977392E+01
          0                 3           6            72   15     2      -0.1602312384E+00      72   15    2      -0.1562556334E+04      0.1677323002E+04      0.6462456030E+05     -0.1602312384E+00
          0                 4           2            70   63     1       0.8631956704E-03      70   63    1       0.1667158911E+01      0.1882787225E+01      0.1677323002E+04      0.8631956704E-03

    ------------------------------------------------
       NWT REQUIRED            4 OUTER ITERATIONS 
       AND A TOTAL OF         27 INNER ITERATIONS.
    ------------------------------------------------

 NO OUTPUT CONTROL FOR STRESS PERIOD   64   TIME STEP    9
 
 SOLVING FOR HEAD 
                                                   Max.-Head-Change                        Max.-Flux-Residual
  Residual-Control   Outer-Iter.   Inner-Iter.     Column Row Layer    Max.-Head-Change    Column Row Layer    Max.-Flux-Residual            L2-New               L2-Old           Solver-Max-Delh
          0                 1          10            72   15     2       0.4254384391E+01      70   19    1       0.6963908844E+05      0.5483456908E+06      0.1882787225E+01      0.4254384391E+01
          0                 2           9            70   62     1      -0.1404477192E+01      62   96    1      -0.1730027364E+05      0.5799027511E+05      0.5483456908E+06     -0.1404477192E+01
          0                 3           7            70   62     1       0.1081001039E+00      62   96    1       0.1698234831E+04      0.1819733899E+04      0.5799027511E+05      0.1081001039E+00
          0                 4           4            33   69     2       0.1569836559E-02      70   62    1       0.2753004686E+01      0.4727296598E+01      0.1819733899E+04      0.1569836559E-02

    ------------------------------------------------
       NWT REQUIRED            4 OUTER ITERATIONS 
       AND A TOTAL OF         30 INNER ITERATIONS.
    ------------------------------------------------

 NO OUTPUT CONTROL FOR STRESS PERIOD   64   TIME STEP   10
 
 SOLVING FOR HEAD 
                                                   Max.-Head-Change                        Max.-Flux-Residual
  Residual-Control   Outer-Iter.   Inner-Iter.     Column Row Layer    Max.-Head-Change    Column Row Layer    Max.-Flux-Residual            L2-New               L2-Old           Solver-Max-Delh
          0                 1          10            33   69     2      -0.2433398275E+01      70   19    1       0.6408453068E+05      0.5389159633E+06      0.4727296598E+01     -0.2433398275E+01
          0                 2           9            73   14     1      -0.7895090280E+00      73   14    1      -0.2656301892E+05      0.6200192605E+05      0.5389159633E+06     -0.7895090280E+00
          0                 3           7            78   74     1       0.5314266691E-01      14   13    2       0.1845029863E+04      0.1897603610E+04      0.6200192605E+05      0.5314266691E-01
          0                 4           5            14   13     2       0.1049754414E-02      14   13    2       0.1660322843E+03      0.1660651017E+03      0.1897603610E+04      0.1049754414E-02

    ------------------------------------------------
       NWT REQUIRED            4 OUTER ITERATIONS 
       AND A TOTAL OF         31 INNER ITERATIONS.
    ------------------------------------------------

 NO OUTPUT CONTROL FOR STRESS PERIOD   64   TIME STEP   11
 
 SOLVING FOR HEAD 
                                                   Max.-Head-Change                        Max.-Flux-Residual
  Residual-Control   Outer-Iter.   Inner-Iter.     Column Row Layer    Max.-Head-Change    Column Row Layer    Max.-Flux-Residual            L2-New               L2-Old           Solver-Max-Delh
          0                 1          10            72   15     1       0.2186052718E+01      61   85    2       0.6006178309E+05      0.5288990256E+06      0.1660651017E+03      0.2186052718E+01
          0                 2           9            87   63     1      -0.1128775633E+01      32   24    2       0.1542815361E+05      0.5972391580E+05      0.5288990256E+06     -0.1128775633E+01
          0                 3           6            87   63     1       0.8770780328E-01      32   24    2      -0.1490128342E+04      0.1774011492E+04      0.5972391580E+05      0.8770780328E-01
          0                 4           3            87   63     1       0.1161470945E-02      87   63    1       0.3032549640E+01      0.3240211122E+01      0.1774011492E+04      0.1161470945E-02

    ------------------------------------------------
       NWT REQUIRED            4 OUTER ITERATIONS 
       AND A TOTAL OF         28 INNER ITERATIONS.
    ------------------------------------------------

 OUTPUT CONTROL FOR STRESS PERIOD   64   TIME STEP   12
    SAVE BUDGET
 UBDSV1 SAVING "         STORAGE" ON UNIT  39 AT TIME STEP 12, STRESS PERIOD  64
 UBDSV2 SAVING "   CONSTANT HEAD" ON UNIT  39 AT TIME STEP 12, STRESS PERIOD  64
 UBDSV1 SAVING "FLOW RIGHT FACE " ON UNIT  39 AT TIME STEP 12, STRESS PERIOD  64
 UBDSV1 SAVING "FLOW FRONT FACE " ON UNIT  39 AT TIME STEP 12, STRESS PERIOD  64
 UBDSV1 SAVING "FLOW LOWER FACE " ON UNIT  39 AT TIME STEP 12, STRESS PERIOD  64
 UBDSV4 SAVING "           WELLS" ON UNIT  39 AT TIME STEP 12, STRESS PERIOD  64
 UBDSV3 SAVING "              ET" ON UNIT  39 AT TIME STEP 12, STRESS PERIOD  64
 UBDSV3 SAVING "        RECHARGE" ON UNIT  39 AT TIME STEP 12, STRESS PERIOD  64
1
  VOLUMETRIC BUDGET FOR ENTIRE MODEL AT END OF TIME STEP   12, STRESS PERIOD  64
  ------------------------------------------------------------------------------

     CUMULATIVE VOLUMES      L**3       RATES FOR THIS TIME STEP      L**3/T
     ------------------                 ------------------------

           IN:                                      IN:
           ---                                      ---
             STORAGE     =416713867264.0000               STORAGE     =    17212260.0000
       CONSTANT HEAD     = 43425206272.0000         CONSTANT HEAD     =     2208579.7500
               WELLS     = 28650096640.0000                 WELLS     =     1225642.0000
                  ET     =           0.0000                    ET     =           0.0000
            RECHARGE     =486591660032.0000              RECHARGE     =    27903472.0000

                TOTAL IN =975380807680.0000                  TOTAL IN =    48549952.0000

          OUT:                                     OUT:
          ----                                     ----
             STORAGE     = 99812999168.0000               STORAGE     =     8838633.0000
       CONSTANT HEAD     = 70358138880.0000         CONSTANT HEAD     =     1689494.5000
               WELLS     =782090895360.0000                 WELLS     =    37814588.0000
                  ET     = 23117979648.0000                    ET     =      207239.2500
            RECHARGE     =           0.0000              RECHARGE     =           0.0000

               TOTAL OUT =975380021248.0000                 TOTAL OUT =    48549956.0000

                IN - OUT =      786432.0000                  IN - OUT =          -4.0000

     PERCENT DISCREPANCY =           0.00         PERCENT DISCREPANCY =          -0.00






         TIME SUMMARY AT END OF TIME STEP   12 IN STRESS PERIOD   64
                    SECONDS     MINUTES      HOURS       DAYS        YEARS
                    -----------------------------------------------------------
   TIME STEP LENGTH 2.62800E+06  43800.      730.00      30.417     8.32763E-02
 STRESS PERIOD TIME 3.15360E+07 5.25600E+05  8760.0      365.00     0.99932    
         TOTAL TIME 2.01968E+09 3.36613E+07 5.61022E+05  23376.      64.000    
1
1
                            STRESS PERIOD NO.   65, LENGTH =   366.0000    
                            -----------------------------------------------

                              NUMBER OF TIME STEPS =    12

                               MULTIPLIER FOR DELT =     1.000

                            INITIAL TIME STEP SIZE =   30.50000    

   1567 WELLS

 REUSING SURF FROM LAST STRESS PERIOD

 REUSING EVTR FROM LAST STRESS PERIOD

 REUSING EXDP FROM LAST STRESS PERIOD



                           RECHARGE
 READING ON UNIT   16 WITH FORMAT: (15F5.0)            


     63 TIME-VARIANT SPECIFIED-HEAD CELLS
 
 SOLVING FOR HEAD 
                                                   Max.-Head-Change                        Max.-Flux-Residual
  Residual-Control   Outer-Iter.   Inner-Iter.     Column Row Layer    Max.-Head-Change    Column Row Layer    Max.-Flux-Residual            L2-New               L2-Old           Solver-Max-Delh
          0                 1          12            65    2     2      -0.8505075650E+02      30   53    1       0.5609001875E+06      0.1509590115E+07      0.3240211122E+01     -0.8505075650E+02
          0                 2          10            73   14     1      -0.5081298750E+01      30   53    1      -0.5553497770E+05      0.1642429057E+06      0.1509590115E+07     -0.5081298750E+01
          0                 3           7            73   14     1       0.4428232082E+00      73   14    2      -0.4787181038E+04      0.8378277938E+04      0.1642429057E+06      0.4428232082E+00
          0                 4           5            65    2     2       0.9402764182E-02      58   96    3       0.8872964055E+02      0.1009366545E+03      0.8378277938E+04      0.9402764182E-02

    ------------------------------------------------
       NWT REQUIRED            4 OUTER ITERATIONS 
       AND A TOTAL OF         34 INNER ITERATIONS.
    ------------------------------------------------

 NO OUTPUT CONTROL FOR STRESS PERIOD   65   TIME STEP    1
 
 SOLVING FOR HEAD 
                                                   Max.-Head-Change                        Max.-Flux-Residual
  Residual-Control   Outer-Iter.   Inner-Iter.     Column Row Layer    Max.-Head-Change    Column Row Layer    Max.-Flux-Residual            L2-New               L2-Old           Solver-Max-Delh
          0                 1          11            30   53     2       0.7427160680E+01      30   53    2       0.2492116697E+06      0.8709265844E+06      0.1009366545E+03      0.7427160680E+01
          0                 2          10            30   53     2      -0.7271192402E+00      30   53    2      -0.2792169825E+05      0.9277800733E+05      0.8709265844E+06     -0.7271192402E+00
          0                 3           7            25   26     2       0.4829781171E-02      25   26    2       0.7319201860E+03      0.7865361299E+03      0.9277800733E+05      0.4829781171E-02

    ------------------------------------------------
       NWT REQUIRED            3 OUTER ITERATIONS 
       AND A TOTAL OF         28 INNER ITERATIONS.
    ------------------------------------------------

 NO OUTPUT CONTROL FOR STRESS PERIOD   65   TIME STEP    2
 
 SOLVING FOR HEAD 
                                                   Max.-Head-Change                        Max.-Flux-Residual
  Residual-Control   Outer-Iter.   Inner-Iter.     Column Row Layer    Max.-Head-Change    Column Row Layer    Max.-Flux-Residual            L2-New               L2-Old           Solver-Max-Delh
          0                 1          11            28   49     2      -0.5560324548E+01      30   53    2       0.1532381051E+06      0.7043503571E+06      0.7865361299E+03     -0.5560324548E+01
          0                 2          10            88   67     1      -0.5034756944E+01      54   45    1      -0.1622283518E+05      0.7417558979E+05      0.7043503571E+06     -0.5034756944E+01
          0                 3           6            88   67     1       0.3133199636E+00      23   49    2       0.8156438431E+03      0.1204314076E+04      0.7417558979E+05      0.3133199636E+00
          0                 4           4            88   67     1       0.8994730944E-02      88   67    1       0.1231801906E+02      0.1398741226E+02      0.1204314076E+04      0.8994730944E-02

    ------------------------------------------------
       NWT REQUIRED            4 OUTER ITERATIONS 
       AND A TOTAL OF         31 INNER ITERATIONS.
    ------------------------------------------------

 NO OUTPUT CONTROL FOR STRESS PERIOD   65   TIME STEP    3
 
 SOLVING FOR HEAD 
                                                   Max.-Head-Change                        Max.-Flux-Residual
  Residual-Control   Outer-Iter.   Inner-Iter.     Column Row Layer    Max.-Head-Change    Column Row Layer    Max.-Flux-Residual            L2-New               L2-Old           Solver-Max-Delh
          0                 1          11            88   67     1      -0.4528127168E+01      30   53    2       0.9824069936E+05      0.6207420507E+06      0.1398741226E+02     -0.4528127168E+01
          0                 2          10            65    6     2      -0.2307106236E+02      31   24    1      -0.2823079289E+05      0.7606530362E+05      0.6207420507E+06     -0.2307106236E+02
          0                 3           6            65    6     2       0.1379134254E+01      61   84    2      -0.2502315380E+04      0.3064116751E+04      0.7606530362E+05      0.1379134254E+01
          0                 4           4            65    6     2       0.5269802816E-01      65    6    2       0.3481078286E+02      0.3846132072E+02      0.3064116751E+04      0.5269802816E-01
          0                 5           2            65    6     2       0.2007995486E-02      65    6    3       0.2864734538E+01      0.3401391301E+01      0.3846132072E+02      0.2007995486E-02

    ------------------------------------------------
       NWT REQUIRED            5 OUTER ITERATIONS 
       AND A TOTAL OF         33 INNER ITERATIONS.
    ------------------------------------------------

 NO OUTPUT CONTROL FOR STRESS PERIOD   65   TIME STEP    4
 
 SOLVING FOR HEAD 
                                                   Max.-Head-Change                        Max.-Flux-Residual
  Residual-Control   Outer-Iter.   Inner-Iter.     Column Row Layer    Max.-Head-Change    Column Row Layer    Max.-Flux-Residual            L2-New               L2-Old           Solver-Max-Delh
          0                 1          11            65    6     2      -0.7404943453E+01      30   52    2       0.7100428166E+05      0.5726918651E+06      0.3401391301E+01     -0.7404943453E+01
          0                 2           9            69   21     1      -0.2659735172E+01      69   21    1      -0.1330335352E+05      0.6174994320E+05      0.5726918651E+06     -0.2659735172E+01
          0                 3           6            69   21     1       0.2270523731E+00      69   21    1       0.1250297475E+04      0.1966929158E+04      0.6174994320E+05      0.2270523731E+00
          0                 4           4            69   21     1       0.1254919739E-02      17   10    2       0.2774808560E+02      0.3273197165E+02      0.1966929158E+04      0.1254919739E-02

    ------------------------------------------------
       NWT REQUIRED            4 OUTER ITERATIONS 
       AND A TOTAL OF         30 INNER ITERATIONS.
    ------------------------------------------------

 NO OUTPUT CONTROL FOR STRESS PERIOD   65   TIME STEP    5
 
 SOLVING FOR HEAD 
                                                   Max.-Head-Change                        Max.-Flux-Residual
  Residual-Control   Outer-Iter.   Inner-Iter.     Column Row Layer    Max.-Head-Change    Column Row Layer    Max.-Flux-Residual            L2-New               L2-Old           Solver-Max-Delh
          0                 1          11            69   21     1      -0.3860906996E+01      62   96    2      -0.5705590549E+05      0.5411012912E+06      0.3273197165E+02     -0.3860906996E+01
          0                 2           9            65    3     2      -0.2227080223E+02      29   23    1      -0.1429118486E+05      0.6095851935E+05      0.5411012912E+06     -0.2227080223E+02
          0                 3           5            65    3     2       0.1154899539E+01      65    3    2       0.5750355651E+03      0.7480639423E+03      0.6095851935E+05      0.1154899539E+01
          0                 4           3            65    3     2       0.5881877670E-01      65    3    2       0.2915846812E+02      0.3375530713E+02      0.7480639423E+03      0.5881877670E-01
          0                 5           2            65    3     2       0.2987160544E-02      65    3    2       0.1481636951E+01      0.1930927870E+01      0.3375530713E+02      0.2987160544E-02

    ------------------------------------------------
       NWT REQUIRED            5 OUTER ITERATIONS 
       AND A TOTAL OF         30 INNER ITERATIONS.
    ------------------------------------------------

 NO OUTPUT CONTROL FOR STRESS PERIOD   65   TIME STEP    6
 
 SOLVING FOR HEAD 
                                                   Max.-Head-Change                        Max.-Flux-Residual
  Residual-Control   Outer-Iter.   Inner-Iter.     Column Row Layer    Max.-Head-Change    Column Row Layer    Max.-Flux-Residual            L2-New               L2-Old           Solver-Max-Delh
          0                 1          11            65    3     2      -0.3751604190E+01      62   96    2      -0.5390605548E+05      0.5186064863E+06      0.1930927870E+01     -0.3751604190E+01
          0                 2           9            65    5     2      -0.2049630804E+02      65    5    2      -0.9832421045E+04      0.5462206005E+05      0.5186064863E+06     -0.2049630804E+02
          0                 3           6            65    5     2       0.1204189688E+01      30   24    2      -0.7764605399E+03      0.1725872739E+04      0.5462206005E+05      0.1204189688E+01
          0                 4           4            65    5     2       0.5255426832E-01      65    5    2       0.3049208860E+02      0.4151844856E+02      0.1725872739E+04      0.5255426832E-01
          0                 5           3            65    5     2       0.2286761017E-02      65    5    2       0.1327998454E+01      0.1976032626E+01      0.4151844856E+02      0.2286761017E-02

    ------------------------------------------------
       NWT REQUIRED            5 OUTER ITERATIONS 
       AND A TOTAL OF         33 INNER ITERATIONS.
    ------------------------------------------------

 NO OUTPUT CONTROL FOR STRESS PERIOD   65   TIME STEP    7
 
 SOLVING FOR HEAD 
                                                   Max.-Head-Change                        Max.-Flux-Residual
  Residual-Control   Outer-Iter.   Inner-Iter.     Column Row Layer    Max.-Head-Change    Column Row Layer    Max.-Flux-Residual            L2-New               L2-Old           Solver-Max-Delh
          0                 1          11            65    5     2      -0.8397816114E+01      62   96    2      -0.5123895245E+05      0.5015522387E+06      0.1976032626E+01     -0.8397816114E+01
          0                 2           9            65    5     2       0.3820859991E+00      34   23    2       0.1234721443E+05      0.5342998039E+05      0.5015522387E+06      0.3820859991E+00
          0                 3           6            78   83     1       0.2537763795E-01      34   23    2      -0.1175487654E+04      0.1329331772E+04      0.5342998039E+05      0.2537763795E-01
          0                 4           3            65    5     2       0.7209142630E-03      78   83    1       0.5847775806E+00      0.9738481790E+00      0.1329331772E+04      0.7209142630E-03

    ------------------------------------------------
       NWT REQUIRED            4 OUTER ITERATIONS 
       AND A TOTAL OF         29 INNER ITERATIONS.
    ------------------------------------------------

 NO OUTPUT CONTROL FOR STRESS PERIOD   65   TIME STEP    8
 
 SOLVING FOR HEAD 
                                                   Max.-Head-Change                        Max.-Flux-Residual
  Residual-Control   Outer-Iter.   Inner-Iter.     Column Row Layer    Max.-Head-Change    Column Row Layer    Max.-Flux-Residual            L2-New               L2-Old           Solver-Max-Delh
          0                 1          11            30   45     2      -0.4823117172E+01      62   95    2      -0.4936764414E+05      0.4884059402E+06      0.9738481790E+00     -0.4823117172E+01
          0                 2           9            30   45     2       0.2124684701E+01      72   15    2       0.1733115909E+05      0.5500556011E+05      0.4884059402E+06      0.2124684701E+01
          0                 3           8            30   45     1       0.7309542214E+00      30   45    2       0.2091893435E+04      0.3209933881E+04      0.5500556011E+05      0.7309542214E+00
          0                 4           5            30   45     1       0.8830798046E-02      29   45    2      -0.1877622359E+03      0.1890638230E+03      0.3209933881E+04      0.8830798046E-02

    ------------------------------------------------
       NWT REQUIRED            4 OUTER ITERATIONS 
       AND A TOTAL OF         33 INNER ITERATIONS.
    ------------------------------------------------

 NO OUTPUT CONTROL FOR STRESS PERIOD   65   TIME STEP    9
 
 SOLVING FOR HEAD 
                                                   Max.-Head-Change                        Max.-Flux-Residual
  Residual-Control   Outer-Iter.   Inner-Iter.     Column Row Layer    Max.-Head-Change    Column Row Layer    Max.-Flux-Residual            L2-New               L2-Old           Solver-Max-Delh
          0                 1          11            63   95     1      -0.1447334377E+01      62   95    2      -0.4836379300E+05      0.4776186562E+06      0.1890638230E+03     -0.1447334377E+01
          0                 2           9            71   96     1      -0.5165811369E+00      62   87    1      -0.1727050989E+05      0.5275146272E+05      0.4776186562E+06     -0.5165811369E+00
          0                 3           6            71   96     1       0.3733013383E-01      68   52    2      -0.2940154979E+03      0.4288413217E+03      0.5275146272E+05      0.3733013383E-01
          0                 4           3            71   96     1       0.6970983195E-03      71   96    1       0.1141942669E+01      0.1929514080E+01      0.4288413217E+03      0.6970983195E-03

    ------------------------------------------------
       NWT REQUIRED            4 OUTER ITERATIONS 
       AND A TOTAL OF         29 INNER ITERATIONS.
    ------------------------------------------------

 NO OUTPUT CONTROL FOR STRESS PERIOD   65   TIME STEP   10
 
 SOLVING FOR HEAD 
                                                   Max.-Head-Change                        Max.-Flux-Residual
  Residual-Control   Outer-Iter.   Inner-Iter.     Column Row Layer    Max.-Head-Change    Column Row Layer    Max.-Flux-Residual            L2-New               L2-Old           Solver-Max-Delh
          0                 1          11            63   95     1      -0.1449505150E+01      62   95    2      -0.4744011127E+05      0.4683909632E+06      0.1929514080E+01     -0.1449505150E+01
          0                 2           9            40   71     2      -0.1578707677E+01      28   21    1      -0.9209379399E+04      0.4940137462E+05      0.4683909632E+06     -0.1578707677E+01
          0                 3           6            78   47     1      -0.1590947572E+00      78   47    1      -0.6610436069E+04      0.6620654094E+04      0.4940137462E+05     -0.1590947572E+00
          0                 4           3            78   47     1      -0.1432410930E-01      78   47    1      -0.5950783041E+03      0.5950941945E+03      0.6620654094E+04     -0.1432410930E-01
          0                 5           2            78   47     1      -0.1287911895E-02      78   47    1      -0.5349868897E+02      0.5349932198E+02      0.5950941945E+03     -0.1287911895E-02

    ------------------------------------------------
       NWT REQUIRED            5 OUTER ITERATIONS 
       AND A TOTAL OF         31 INNER ITERATIONS.
    ------------------------------------------------

 NO OUTPUT CONTROL FOR STRESS PERIOD   65   TIME STEP   11

 INTERPOLATION FOR HEAD OBS# 3710, ID 1471-65-336  CHANGED BECAUSE AT LEAST ONE
 NEIGHBORING CELL REQUIRED FOR INTERPOLATION IS DRY OR INACTIVE (OBS2BAS7SE)

 INTERPOLATION FOR HEAD OBS# 5428, ID 846-65-362   CHANGED BECAUSE AT LEAST ONE
 NEIGHBORING CELL REQUIRED FOR INTERPOLATION IS DRY OR INACTIVE (OBS2BAS7SE)
 
 SOLVING FOR HEAD 
                                                   Max.-Head-Change                        Max.-Flux-Residual
  Residual-Control   Outer-Iter.   Inner-Iter.     Column Row Layer    Max.-Head-Change    Column Row Layer    Max.-Flux-Residual            L2-New               L2-Old           Solver-Max-Delh
          0                 1          11            40   71     2      -0.2129761769E+01      62   95    2      -0.4659363789E+05      0.4601421744E+06      0.5349932198E+02     -0.2129761769E+01
          0                 2           9            78   47     1      -0.1944968273E+01      63   96    2       0.1347686565E+05      0.4991218543E+05      0.4601421744E+06     -0.1944968273E+01
          0                 3           6            78   47     1       0.1570732226E+00      62   87    2      -0.7263050069E+03      0.1122341755E+04      0.4991218543E+05      0.1570732226E+00
          0                 4           2            78   47     1       0.1595773912E-02      78   47    1       0.5409918170E+01      0.5436344597E+01      0.1122341755E+04      0.1595773912E-02

    ------------------------------------------------
       NWT REQUIRED            4 OUTER ITERATIONS 
       AND A TOTAL OF         28 INNER ITERATIONS.
    ------------------------------------------------

 OUTPUT CONTROL FOR STRESS PERIOD   65   TIME STEP   12
    SAVE BUDGET
    SAVE HEAD FOR LAYERS:   1  2  3
 UBDSV1 SAVING "         STORAGE" ON UNIT  39 AT TIME STEP 12, STRESS PERIOD  65
 UBDSV2 SAVING "   CONSTANT HEAD" ON UNIT  39 AT TIME STEP 12, STRESS PERIOD  65
 UBDSV1 SAVING "FLOW RIGHT FACE " ON UNIT  39 AT TIME STEP 12, STRESS PERIOD  65
 UBDSV1 SAVING "FLOW FRONT FACE " ON UNIT  39 AT TIME STEP 12, STRESS PERIOD  65
 UBDSV1 SAVING "FLOW LOWER FACE " ON UNIT  39 AT TIME STEP 12, STRESS PERIOD  65
 UBDSV4 SAVING "           WELLS" ON UNIT  39 AT TIME STEP 12, STRESS PERIOD  65
 UBDSV3 SAVING "              ET" ON UNIT  39 AT TIME STEP 12, STRESS PERIOD  65
 UBDSV3 SAVING "        RECHARGE" ON UNIT  39 AT TIME STEP 12, STRESS PERIOD  65

 INTERPOLATION FOR HEAD OBS#  198, ID 3228-66-19   CHANGED BECAUSE AT LEAST ONE
 NEIGHBORING CELL REQUIRED FOR INTERPOLATION IS DRY OR INACTIVE (OBS2BAS7SE)

 INTERPOLATION FOR HEAD OBS#  639, ID 3014-66-25   CHANGED BECAUSE AT LEAST ONE
 NEIGHBORING CELL REQUIRED FOR INTERPOLATION IS DRY OR INACTIVE (OBS2BAS7SE)

 INTERPOLATION FOR HEAD OBS# 1743, ID 2618-66-28   CHANGED BECAUSE AT LEAST ONE
 NEIGHBORING CELL REQUIRED FOR INTERPOLATION IS DRY OR INACTIVE (OBS2BAS7SE)

 INTERPOLATION FOR HEAD OBS# 1834, ID 1908-66-18   CHANGED BECAUSE AT LEAST ONE
 NEIGHBORING CELL REQUIRED FOR INTERPOLATION IS DRY OR INACTIVE (OBS2BAS7SE)

 INTERPOLATION FOR HEAD OBS# 1869, ID 2606-66-20   CHANGED BECAUSE AT LEAST ONE
 NEIGHBORING CELL REQUIRED FOR INTERPOLATION IS DRY OR INACTIVE (OBS2BAS7SE)

 INTERPOLATION FOR HEAD OBS# 2526, ID 2243-66-19   CHANGED BECAUSE AT LEAST ONE
 NEIGHBORING CELL REQUIRED FOR INTERPOLATION IS DRY OR INACTIVE (OBS2BAS7SE)

 INTERPOLATION FOR HEAD OBS# 3196, ID 2443-66-24   CHANGED BECAUSE AT LEAST ONE
 NEIGHBORING CELL REQUIRED FOR INTERPOLATION IS DRY OR INACTIVE (OBS2BAS7SE)

 INTERPOLATION FOR HEAD OBS# 3771, ID 1405-66-13   CHANGED BECAUSE AT LEAST ONE
 NEIGHBORING CELL REQUIRED FOR INTERPOLATION IS DRY OR INACTIVE (OBS2BAS7SE)

 INTERPOLATION FOR HEAD OBS# 5399, ID 1705-66-25   CHANGED BECAUSE AT LEAST ONE
 NEIGHBORING CELL REQUIRED FOR INTERPOLATION IS DRY OR INACTIVE (OBS2BAS7SE)

 INTERPOLATION FOR HEAD OBS# 6262, ID 987-66-20    CHANGED BECAUSE AT LEAST ONE
 NEIGHBORING CELL REQUIRED FOR INTERPOLATION IS DRY OR INACTIVE (OBS2BAS7SE)

 HEAD WILL BE SAVED ON UNIT   31 AT END OF TIME STEP   12, STRESS PERIOD   65
1
  VOLUMETRIC BUDGET FOR ENTIRE MODEL AT END OF TIME STEP   12, STRESS PERIOD  65
  ------------------------------------------------------------------------------

     CUMULATIVE VOLUMES      L**3       RATES FOR THIS TIME STEP      L**3/T
     ------------------                 ------------------------

           IN:                                      IN:
           ---                                      ---
             STORAGE     =423012368384.0000               STORAGE     =    15969584.0000
       CONSTANT HEAD     = 44253876224.0000         CONSTANT HEAD     =     2289527.7500
               WELLS     = 29098682368.0000                 WELLS     =     1225642.0000
                  ET     =           0.0000                    ET     =           0.0000
            RECHARGE     =496796401664.0000              RECHARGE     =    27881394.0000

                TOTAL IN =993161314304.0000                  TOTAL IN =    47366148.0000

          OUT:                                     OUT:
          ----                                     ----
             STORAGE     =103105011712.0000               STORAGE     =     7757983.0000
       CONSTANT HEAD     = 70972039168.0000         CONSTANT HEAD     =     1661232.7500
               WELLS     =795862106112.0000                 WELLS     =    37627316.0000
                  ET     = 23220996096.0000                    ET     =      319614.0625
            RECHARGE     =           0.0000              RECHARGE     =           0.0000

               TOTAL OUT =993160134656.0000                 TOTAL OUT =    47366148.0000

                IN - OUT =     1179648.0000                  IN - OUT =           0.0000

     PERCENT DISCREPANCY =           0.00         PERCENT DISCREPANCY =           0.00






         TIME SUMMARY AT END OF TIME STEP   12 IN STRESS PERIOD   65
                    SECONDS     MINUTES      HOURS       DAYS        YEARS
                    -----------------------------------------------------------
   TIME STEP LENGTH 2.63520E+06  43920.      732.00      30.500     8.35044E-02
 STRESS PERIOD TIME 3.16224E+07 5.27040E+05  8784.0      366.00      1.0021    
         TOTAL TIME 2.05130E+09 3.41884E+07 5.69806E+05  23742.      65.002    
1
1
                            STRESS PERIOD NO.   66, LENGTH =   365.0000    
                            -----------------------------------------------

                              NUMBER OF TIME STEPS =    12

                               MULTIPLIER FOR DELT =     1.000

                            INITIAL TIME STEP SIZE =   30.41667    

   1579 WELLS

 REUSING SURF FROM LAST STRESS PERIOD

 REUSING EVTR FROM LAST STRESS PERIOD

 REUSING EXDP FROM LAST STRESS PERIOD



                           RECHARGE
 READING ON UNIT   16 WITH FORMAT: (15F5.0)            


     63 TIME-VARIANT SPECIFIED-HEAD CELLS
 
 SOLVING FOR HEAD 
                                                   Max.-Head-Change                        Max.-Flux-Residual
  Residual-Control   Outer-Iter.   Inner-Iter.     Column Row Layer    Max.-Head-Change    Column Row Layer    Max.-Flux-Residual            L2-New               L2-Old           Solver-Max-Delh
          0                 1          11            30   53     1       0.2796126767E+02      30   53    1       0.5520690000E+06      0.1459674801E+07      0.5436344597E+01      0.2796126767E+02
          0                 2          10            69   47     1      -0.5180095202E+01      69   47    1      -0.2428673469E+06      0.2875195182E+06      0.1459674801E+07     -0.5180095202E+01
          0                 3           7            69   46     1       0.1180974542E+00      17   16    2       0.2995178606E+04      0.4089003700E+04      0.2875195182E+06      0.1180974542E+00
          0                 4           5            36   68     2       0.2605257180E-02      17   16    2       0.2695096596E+03      0.2745433905E+03      0.4089003700E+04      0.2605257180E-02

    ------------------------------------------------
       NWT REQUIRED            4 OUTER ITERATIONS 
       AND A TOTAL OF         33 INNER ITERATIONS.
    ------------------------------------------------

 NO OUTPUT CONTROL FOR STRESS PERIOD   66   TIME STEP    1

 INTERPOLATION FOR HEAD OBS# 1335, ID 2852-66-35   CHANGED BECAUSE AT LEAST ONE
 NEIGHBORING CELL REQUIRED FOR INTERPOLATION IS DRY OR INACTIVE (OBS2BAS7SE)

 INTERPOLATION FOR HEAD OBS# 1404, ID 2840-66-32   CHANGED BECAUSE AT LEAST ONE
 NEIGHBORING CELL REQUIRED FOR INTERPOLATION IS DRY OR INACTIVE (OBS2BAS7SE)

 INTERPOLATION FOR HEAD OBS# 1405, ID 2827-66-32   CHANGED BECAUSE AT LEAST ONE
 NEIGHBORING CELL REQUIRED FOR INTERPOLATION IS DRY OR INACTIVE (OBS2BAS7SE)

 INTERPOLATION FOR HEAD OBS# 1658, ID 2303-66-47   CHANGED BECAUSE AT LEAST ONE
 NEIGHBORING CELL REQUIRED FOR INTERPOLATION IS DRY OR INACTIVE (OBS2BAS7SE)

 INTERPOLATION FOR HEAD OBS# 3608, ID 1370-66-56   CHANGED BECAUSE AT LEAST ONE
 NEIGHBORING CELL REQUIRED FOR INTERPOLATION IS DRY OR INACTIVE (OBS2BAS7SE)
 
 SOLVING FOR HEAD 
                                                   Max.-Head-Change                        Max.-Flux-Residual
  Residual-Control   Outer-Iter.   Inner-Iter.     Column Row Layer    Max.-Head-Change    Column Row Layer    Max.-Flux-Residual            L2-New               L2-Old           Solver-Max-Delh
          0                 1          11            30   53     2       0.9700675495E+01      30   53    2       0.3415579802E+06      0.9447743371E+06      0.2745433905E+03      0.9700675495E+01
          0                 2           9            30   53     2      -0.9423751713E+00      30   53    2      -0.3864942734E+05      0.1040163131E+06      0.9447743371E+06     -0.9423751713E+00
          0                 3           7            29   51     3      -0.1898756913E-01      27   20    2      -0.2610910931E+04      0.3165642510E+04      0.1040163131E+06     -0.1898756913E-01
          0                 4           4            85   85     2      -0.2895177004E-03      23   24    2       0.1555429016E+02      0.1563399897E+02      0.3165642510E+04     -0.2895177004E-03

    ------------------------------------------------
       NWT REQUIRED            4 OUTER ITERATIONS 
       AND A TOTAL OF         31 INNER ITERATIONS.
    ------------------------------------------------

 NO OUTPUT CONTROL FOR STRESS PERIOD   66   TIME STEP    2

 INTERPOLATION FOR HEAD OBS# 7529, ID 269-66-61    CHANGED BECAUSE AT LEAST ONE
 NEIGHBORING CELL REQUIRED FOR INTERPOLATION IS DRY OR INACTIVE (OBS2BAS7SE)
 
 SOLVING FOR HEAD 
                                                   Max.-Head-Change                        Max.-Flux-Residual
  Residual-Control   Outer-Iter.   Inner-Iter.     Column Row Layer    Max.-Head-Change    Column Row Layer    Max.-Flux-Residual            L2-New               L2-Old           Solver-Max-Delh
          0                 1          11            30   53     2       0.6130785664E+01      30   53    2       0.2009384779E+06      0.7709896080E+06      0.1563399897E+02      0.6130785664E+01
          0                 2          10            30   53     1      -0.2716227668E+01      30   53    1      -0.1298719651E+06      0.1561289552E+06      0.7709896080E+06     -0.2716227668E+01
          0                 3           7            29   22     2       0.1763505333E-01      29   22    2       0.3226882335E+04      0.4017185264E+04      0.1561289552E+06      0.1763505333E-01
          0                 4           6            29   22     2       0.1587255853E-02      29   22    2       0.2903911429E+03      0.2930471502E+03      0.4017185264E+04      0.1587255853E-02

    ------------------------------------------------
       NWT REQUIRED            4 OUTER ITERATIONS 
       AND A TOTAL OF         34 INNER ITERATIONS.
    ------------------------------------------------

 NO OUTPUT CONTROL FOR STRESS PERIOD   66   TIME STEP    3
 
 SOLVING FOR HEAD 
                                                   Max.-Head-Change                        Max.-Flux-Residual
  Residual-Control   Outer-Iter.   Inner-Iter.     Column Row Layer    Max.-Head-Change    Column Row Layer    Max.-Flux-Residual            L2-New               L2-Old           Solver-Max-Delh
          0                 1          11            29   53     1       0.4382076970E+01      30   52    2       0.1223996721E+06      0.6794282294E+06      0.2930471502E+03      0.4382076970E+01
          0                 2          10            28   49     2       0.1172482106E+01      28   49    2       0.1366268853E+06      0.1579149076E+06      0.6794282294E+06      0.1172482106E+01
          0                 3           7            28   49     1       0.1676355473E+00      28   49    2       0.1410688955E+05      0.1443448039E+05      0.1579149076E+06      0.1676355473E+00
          0                 4           6            28   49     1       0.9250454103E-02      28   49    2       0.6940322403E+03      0.7149641348E+03      0.1443448039E+05      0.9250454103E-02

    ------------------------------------------------
       NWT REQUIRED            4 OUTER ITERATIONS 
       AND A TOTAL OF         34 INNER ITERATIONS.
    ------------------------------------------------

 NO OUTPUT CONTROL FOR STRESS PERIOD   66   TIME STEP    4
 
 SOLVING FOR HEAD 
                                                   Max.-Head-Change                        Max.-Flux-Residual
  Residual-Control   Outer-Iter.   Inner-Iter.     Column Row Layer    Max.-Head-Change    Column Row Layer    Max.-Flux-Residual            L2-New               L2-Old           Solver-Max-Delh
          0                 1          11            86   64     1      -0.4385484244E+01      30   52    2       0.8969076598E+05      0.6285425669E+06      0.7149641348E+03     -0.4385484244E+01
          0                 2          10            90   66     1      -0.6745089406E+00      30   20    1      -0.1749001885E+05      0.6692376270E+05      0.6285425669E+06     -0.6745089406E+00
          0                 3           6            90   66     1       0.5804919998E-01      90   66    1       0.4910569459E+03      0.8658090685E+03      0.6692376270E+05      0.5804919998E-01
          0                 4           3            85   85     2      -0.3164833821E-03      90   66    1       0.2267878190E+01      0.3133731082E+01      0.8658090685E+03     -0.3164833821E-03

    ------------------------------------------------
       NWT REQUIRED            4 OUTER ITERATIONS 
       AND A TOTAL OF         30 INNER ITERATIONS.
    ------------------------------------------------

 NO OUTPUT CONTROL FOR STRESS PERIOD   66   TIME STEP    5
 
 SOLVING FOR HEAD 
                                                   Max.-Head-Change                        Max.-Flux-Residual
  Residual-Control   Outer-Iter.   Inner-Iter.     Column Row Layer    Max.-Head-Change    Column Row Layer    Max.-Flux-Residual            L2-New               L2-Old           Solver-Max-Delh
          0                 1          11            29   53     1       0.3209801162E+01      29   53    2       0.7545687908E+05      0.5959801279E+06      0.3133731082E+01      0.3209801162E+01
          0                 2          10            86   66     1      -0.3124730420E+01      28   19    1      -0.2166630574E+05      0.6555503360E+05      0.5959801279E+06     -0.3124730420E+01
          0                 3           7            72   15     1       0.2382687627E+00      72   15    1       0.1435099391E+04      0.1475062932E+04      0.6555503360E+05      0.2382687627E+00
          0                 4           3            86   66     1       0.6306222655E-02      72   15    1       0.6584329706E+01      0.8889271546E+01      0.1475062932E+04      0.6306222655E-02

    ------------------------------------------------
       NWT REQUIRED            4 OUTER ITERATIONS 
       AND A TOTAL OF         31 INNER ITERATIONS.
    ------------------------------------------------

 NO OUTPUT CONTROL FOR STRESS PERIOD   66   TIME STEP    6
 
 SOLVING FOR HEAD 
                                                   Max.-Head-Change                        Max.-Flux-Residual
  Residual-Control   Outer-Iter.   Inner-Iter.     Column Row Layer    Max.-Head-Change    Column Row Layer    Max.-Flux-Residual            L2-New               L2-Old           Solver-Max-Delh
          0                 1          11            29   53     1       0.2741598354E+01      29   53    2       0.6445815068E+05      0.5725971844E+06      0.8889271546E+01      0.2741598354E+01
          0                 2          10            27   31     1      -0.2748336663E+00      29   19    1      -0.1382187052E+05      0.6324490301E+05      0.5725971844E+06     -0.2748336663E+00
          0                 3           6            29   19     2       0.2443562751E-02      29   19    2       0.3548579320E+03      0.3636936283E+03      0.6324490301E+05      0.2443562751E-02

    ------------------------------------------------
       NWT REQUIRED            3 OUTER ITERATIONS 
       AND A TOTAL OF         27 INNER ITERATIONS.
    ------------------------------------------------

 NO OUTPUT CONTROL FOR STRESS PERIOD   66   TIME STEP    7
 
 SOLVING FOR HEAD 
                                                   Max.-Head-Change                        Max.-Flux-Residual
  Residual-Control   Outer-Iter.   Inner-Iter.     Column Row Layer    Max.-Head-Change    Column Row Layer    Max.-Flux-Residual            L2-New               L2-Old           Solver-Max-Delh
          0                 1          11            29   53     1       0.2356758629E+01      29   53    2       0.5514572250E+05      0.5535362929E+06      0.3636936283E+03      0.2356758629E+01
          0                 2          10            22   44     2      -0.2648717377E+00      29   19    2       0.1464456413E+05      0.5895189269E+05      0.5535362929E+06     -0.2648717377E+00
          0                 3           6            22   44     2       0.2241092251E-01      13    9    2       0.1519478081E+04      0.2154113322E+04      0.5895189269E+05      0.2241092251E-01
          0                 4           5            13    9     2       0.8755836418E-03      13    9    2       0.1367406991E+03      0.1381127094E+03      0.2154113322E+04      0.8755836418E-03

    ------------------------------------------------
       NWT REQUIRED            4 OUTER ITERATIONS 
       AND A TOTAL OF         32 INNER ITERATIONS.
    ------------------------------------------------

 NO OUTPUT CONTROL FOR STRESS PERIOD   66   TIME STEP    8
 
 SOLVING FOR HEAD 
                                                   Max.-Head-Change                        Max.-Flux-Residual
  Residual-Control   Outer-Iter.   Inner-Iter.     Column Row Layer    Max.-Head-Change    Column Row Layer    Max.-Flux-Residual            L2-New               L2-Old           Solver-Max-Delh
          0                 1          11            22   44     2      -0.3115963963E+01      29   53    2       0.4746100874E+05      0.5378402717E+06      0.1381127094E+03     -0.3115963963E+01
          0                 2          10            22   44     2       0.2430467966E+00      25   24    2       0.1123896358E+05      0.5772307376E+05      0.5378402717E+06      0.2430467966E+00
          0                 3           6            61  107     1       0.9322884748E-02      25   24    2      -0.9993376750E+03      0.1524987618E+04      0.5772307376E+05      0.9322884748E-02

    ------------------------------------------------
       NWT REQUIRED            3 OUTER ITERATIONS 
       AND A TOTAL OF         27 INNER ITERATIONS.
    ------------------------------------------------

 NO OUTPUT CONTROL FOR STRESS PERIOD   66   TIME STEP    9
 
 SOLVING FOR HEAD 
                                                   Max.-Head-Change                        Max.-Flux-Residual
  Residual-Control   Outer-Iter.   Inner-Iter.     Column Row Layer    Max.-Head-Change    Column Row Layer    Max.-Flux-Residual            L2-New               L2-Old           Solver-Max-Delh
          0                 1          11            29   53     1       0.1788925526E+01      29   53    2       0.4119151624E+05      0.5247936496E+06      0.6258846582E+00      0.1788925526E+01
          0                 2          10            60   92     2      -0.3703729089E+00      33   21    1      -0.1426899118E+05      0.5673176448E+05      0.5247936496E+06     -0.3703729089E+00
          0                 3           7            60   92     2       0.2717426139E-01      32   20    2      -0.1272595012E+04      0.1612791508E+04      0.5673176448E+05      0.2717426139E-01
          0                 4           5            60   92     1       0.4983135026E-03      20   14    2       0.7106559908E+02      0.7109094866E+02      0.1612791508E+04      0.4983135026E-03

    ------------------------------------------------
       NWT REQUIRED            4 OUTER ITERATIONS 
       AND A TOTAL OF         33 INNER ITERATIONS.
    ------------------------------------------------

 NO OUTPUT CONTROL FOR STRESS PERIOD   66   TIME STEP   10
 
 SOLVING FOR HEAD 
                                                   Max.-Head-Change                        Max.-Flux-Residual
  Residual-Control   Outer-Iter.   Inner-Iter.     Column Row Layer    Max.-Head-Change    Column Row Layer    Max.-Flux-Residual            L2-New               L2-Old           Solver-Max-Delh
          0                 1          11            60   92     2      -0.2480818521E+01      29   53    2       0.3608688442E+05      0.5132192374E+06      0.7109094866E+02     -0.2480818521E+01
          0                 2          10            37   71     2      -0.1911015763E+01      20   14    2       0.5671794111E+04      0.5229962463E+05      0.5132192374E+06     -0.1911015763E+01
          0                 3           7            61   36     2      -0.7334336598E+00      61   36    2      -0.2460886361E+05      0.2471705142E+05      0.5229962463E+05     -0.7334336598E+00
          0                 4           5            61   36     2      -0.6623699513E-01      61   36    2      -0.2220976898E+04      0.2229923708E+04      0.2471705142E+05     -0.6623699513E-01
          0                 5           4            61   36     2      -0.5957164832E-02      61   36    2      -0.1997163601E+03      0.2005228359E+03      0.2229923708E+04     -0.5957164832E-02

    ------------------------------------------------
       NWT REQUIRED            5 OUTER ITERATIONS 
       AND A TOTAL OF         37 INNER ITERATIONS.
    ------------------------------------------------

 NO OUTPUT CONTROL FOR STRESS PERIOD   66   TIME STEP   11
 
 SOLVING FOR HEAD 
                                                   Max.-Head-Change                        Max.-Flux-Residual
  Residual-Control   Outer-Iter.   Inner-Iter.     Column Row Layer    Max.-Head-Change    Column Row Layer    Max.-Flux-Residual            L2-New               L2-Old           Solver-Max-Delh
          0                 1          11            29   53     1       0.1410880830E+01      32   24    1       0.3202410279E+05      0.5034587915E+06      0.2005228359E+03      0.1410880830E+01
          0                 2          10            61   36     2      -0.1170264875E+02      23   23    2       0.9758370691E+04      0.5342787026E+05      0.5034587915E+06     -0.1170264875E+02
          0                 3           6            61   36     2       0.5853794277E+01      61   36    2       0.5304641015E+04      0.7826779447E+04      0.5342787026E+05      0.5853794277E+01
          0                 4           5            61   36     2       0.1997920803E+00      61   35    2      -0.2086990352E+03      0.3359438607E+03      0.7826779447E+04      0.1997920803E+00
          0                 5           4            61   36     2       0.6737411239E-02      12   12    2       0.1558220425E+02      0.2066225240E+02      0.3359438607E+03      0.6737411239E-02

    ------------------------------------------------
       NWT REQUIRED            5 OUTER ITERATIONS 
       AND A TOTAL OF         36 INNER ITERATIONS.
    ------------------------------------------------

 OUTPUT CONTROL FOR STRESS PERIOD   66   TIME STEP   12
    SAVE BUDGET
 UBDSV1 SAVING "         STORAGE" ON UNIT  39 AT TIME STEP 12, STRESS PERIOD  66
 UBDSV2 SAVING "   CONSTANT HEAD" ON UNIT  39 AT TIME STEP 12, STRESS PERIOD  66
 UBDSV1 SAVING "FLOW RIGHT FACE " ON UNIT  39 AT TIME STEP 12, STRESS PERIOD  66
 UBDSV1 SAVING "FLOW FRONT FACE " ON UNIT  39 AT TIME STEP 12, STRESS PERIOD  66
 UBDSV1 SAVING "FLOW LOWER FACE " ON UNIT  39 AT TIME STEP 12, STRESS PERIOD  66
 UBDSV4 SAVING "           WELLS" ON UNIT  39 AT TIME STEP 12, STRESS PERIOD  66
 UBDSV3 SAVING "              ET" ON UNIT  39 AT TIME STEP 12, STRESS PERIOD  66
 UBDSV3 SAVING "        RECHARGE" ON UNIT  39 AT TIME STEP 12, STRESS PERIOD  66
1
  VOLUMETRIC BUDGET FOR ENTIRE MODEL AT END OF TIME STEP   12, STRESS PERIOD  66
  ------------------------------------------------------------------------------

     CUMULATIVE VOLUMES      L**3       RATES FOR THIS TIME STEP      L**3/T
     ------------------                 ------------------------

           IN:                                      IN:
           ---                                      ---
             STORAGE     =427769331712.0000               STORAGE     =    11849756.0000
       CONSTANT HEAD     = 45127528448.0000         CONSTANT HEAD     =     2429908.0000
               WELLS     = 29546039296.0000                 WELLS     =     1225642.0000
                  ET     =           0.0000                    ET     =           0.0000
            RECHARGE     =509429645312.0000              RECHARGE     =    34611836.0000

                TOTAL IN =       1.0119E+12                  TOTAL IN =    50117144.0000

          OUT:                                     OUT:
          ----                                     ----
             STORAGE     =108238831616.0000               STORAGE     =    12804420.0000
       CONSTANT HEAD     = 71612162048.0000         CONSTANT HEAD     =     1784725.0000
               WELLS     =808643067904.0000                 WELLS     =    35033332.0000
                  ET     = 23377362944.0000                    ET     =      494665.5000
            RECHARGE     =           0.0000              RECHARGE     =           0.0000

               TOTAL OUT =       1.0119E+12                 TOTAL OUT =    50117140.0000

                IN - OUT =     1179648.0000                  IN - OUT =           4.0000

     PERCENT DISCREPANCY =           0.00         PERCENT DISCREPANCY =           0.00






         TIME SUMMARY AT END OF TIME STEP   12 IN STRESS PERIOD   66
                    SECONDS     MINUTES      HOURS       DAYS        YEARS
                    -----------------------------------------------------------
   TIME STEP LENGTH 2.62800E+06  43800.      730.00      30.417     8.32763E-02
 STRESS PERIOD TIME 3.15360E+07 5.25600E+05  8760.0      365.00     0.99932    
         TOTAL TIME 2.08284E+09 3.47140E+07 5.78566E+05  24107.      66.001    
1
1
                            STRESS PERIOD NO.   67, LENGTH =   365.0000    
                            -----------------------------------------------

                              NUMBER OF TIME STEPS =    12

                               MULTIPLIER FOR DELT =     1.000

                            INITIAL TIME STEP SIZE =   30.41667    

   1596 WELLS

 REUSING SURF FROM LAST STRESS PERIOD

 REUSING EVTR FROM LAST STRESS PERIOD

 REUSING EXDP FROM LAST STRESS PERIOD



                           RECHARGE
 READING ON UNIT   16 WITH FORMAT: (15F5.0)            


     63 TIME-VARIANT SPECIFIED-HEAD CELLS
 
 SOLVING FOR HEAD 
                                                   Max.-Head-Change                        Max.-Flux-Residual
  Residual-Control   Outer-Iter.   Inner-Iter.     Column Row Layer    Max.-Head-Change    Column Row Layer    Max.-Flux-Residual            L2-New               L2-Old           Solver-Max-Delh
          0                 1          11            92   77     2       0.9188023857E+02      28   52    3      -0.3822482013E+06      0.1267568515E+07      0.2066225240E+02      0.9188023857E+02
          0                 2          10            92   77     2       0.2983975836E+02      88   67    1      -0.6748255581E+06      0.7573229854E+06      0.1267568515E+07      0.2983975836E+02
          0                 3           6            92   77     2      -0.2258726204E+02      92   77    2      -0.6822076140E+06      0.6830757497E+06      0.7573229854E+06     -0.2258726204E+02
          0                 4           4            91   77     2       0.5841897465E+01      92   77    2      -0.7111415893E+04      0.8643719296E+04      0.6830757497E+06      0.5841897465E+01
          0                 5           3            91   77     2       0.9337436211E+00      91   77    2       0.3981428474E+03      0.5381026505E+03      0.8643719296E+04      0.9337436211E+00
          0                 6           2            91   77     2       0.1451986779E+00      91   77    2       0.6169610507E+02      0.7672941672E+02      0.5381026505E+03      0.1451986779E+00
          0                 7           2            91   77     2       0.2257983094E-01      91   77    2       0.9566718944E+01      0.1309377922E+02      0.7672941672E+02      0.2257983094E-01
          0                 8           2            91   77     2       0.3509671234E-02      91   77    3       0.1885233304E+01      0.2416469494E+01      0.1309377922E+02      0.3509671234E-02

    ------------------------------------------------
       NWT REQUIRED            8 OUTER ITERATIONS 
       AND A TOTAL OF         40 INNER ITERATIONS.
    ------------------------------------------------

 NO OUTPUT CONTROL FOR STRESS PERIOD   67   TIME STEP    1
 
 SOLVING FOR HEAD 
                                                   Max.-Head-Change                        Max.-Flux-Residual
  Residual-Control   Outer-Iter.   Inner-Iter.     Column Row Layer    Max.-Head-Change    Column Row Layer    Max.-Flux-Residual            L2-New               L2-Old           Solver-Max-Delh
          0                 1          11            28   50     2       0.1063266034E+02      30   52    2       0.2554687624E+06      0.8510309071E+06      0.2416469494E+01      0.1063266034E+02
          0                 2          10            30   54     1      -0.1322310335E+01      30   54    1      -0.6960370847E+05      0.1143119449E+06      0.8510309071E+06     -0.1322310335E+01
          0                 3           6            41   75     2       0.9728550526E-01      63   96    1       0.1361312547E+04      0.1460686412E+04      0.1143119449E+06      0.9728550526E-01
          0                 4           3            41   75     2       0.1038476202E-02      29   54    1       0.3894013122E+01      0.8034797017E+01      0.1460686412E+04      0.1038476202E-02

    ------------------------------------------------
       NWT REQUIRED            4 OUTER ITERATIONS 
       AND A TOTAL OF         30 INNER ITERATIONS.
    ------------------------------------------------

 NO OUTPUT CONTROL FOR STRESS PERIOD   67   TIME STEP    2
 
 SOLVING FOR HEAD 
                                                   Max.-Head-Change                        Max.-Flux-Residual
  Residual-Control   Outer-Iter.   Inner-Iter.     Column Row Layer    Max.-Head-Change    Column Row Layer    Max.-Flux-Residual            L2-New               L2-Old           Solver-Max-Delh
          0                 1          11            28   50     2       0.7090054322E+01      30   52    2       0.1547634822E+06      0.7264356491E+06      0.8034797017E+01      0.7090054322E+01
          0                 2          10            30   52     1      -0.9746609947E+00      30   52    1      -0.3898145728E+05      0.8727233605E+05      0.7264356491E+06     -0.9746609947E+00
          0                 3           6            36   19     3      -0.1079440956E-01      60   93    2      -0.4618477992E+03      0.5781512250E+03      0.8727233605E+05     -0.1079440956E-01
          0                 4           2            60   93     1      -0.9406655938E-03      60   93    2      -0.4157118826E+02      0.4162919948E+02      0.5781512250E+03     -0.9406655938E-03

    ------------------------------------------------
       NWT REQUIRED            4 OUTER ITERATIONS 
       AND A TOTAL OF         29 INNER ITERATIONS.
    ------------------------------------------------

 NO OUTPUT CONTROL FOR STRESS PERIOD   67   TIME STEP    3
 
 SOLVING FOR HEAD 
                                                   Max.-Head-Change                        Max.-Flux-Residual
  Residual-Control   Outer-Iter.   Inner-Iter.     Column Row Layer    Max.-Head-Change    Column Row Layer    Max.-Flux-Residual            L2-New               L2-Old           Solver-Max-Delh
          0                 1          11            28   50     2       0.5054348876E+01      28   50    2       0.1026033938E+06      0.6640585558E+06      0.4162919948E+02      0.5054348876E+01
          0                 2          10            60   93     2      -0.2044036928E+01      31   21    1      -0.1467510613E+05      0.7119340045E+05      0.6640585558E+06     -0.2044036928E+01
          0                 3           6            36   71     2      -0.2407928521E+00      36   71    2      -0.7707065198E+04      0.7776574679E+04      0.7119340045E+05     -0.2407928521E+00
          0                 4           4            36   71     2      -0.2150184088E-01      36   71    2      -0.6887466492E+03      0.6889278458E+03      0.7776574679E+04     -0.2150184088E-01
          0                 5           2            36   71     2      -0.1933759842E-02      36   71    2      -0.6193274582E+02      0.6194355297E+02      0.6889278458E+03     -0.1933759842E-02

    ------------------------------------------------
       NWT REQUIRED            5 OUTER ITERATIONS 
       AND A TOTAL OF         33 INNER ITERATIONS.
    ------------------------------------------------

 NO OUTPUT CONTROL FOR STRESS PERIOD   67   TIME STEP    4
 
 SOLVING FOR HEAD 
                                                   Max.-Head-Change                        Max.-Flux-Residual
  Residual-Control   Outer-Iter.   Inner-Iter.     Column Row Layer    Max.-Head-Change    Column Row Layer    Max.-Flux-Residual            L2-New               L2-Old           Solver-Max-Delh
          0                 1          11            28   49     2       0.4462292061E+01      28   50    2       0.7346231765E+05      0.6267479750E+06      0.6194355297E+02      0.4462292061E+01
          0                 2          10            36   71     2      -0.2823346901E+01      61   83    1      -0.1223122091E+05      0.6417527988E+05      0.6267479750E+06     -0.2823346901E+01
          0                 3           6            36   71     2       0.1933484209E+00      36   71    2       0.2425790788E+03      0.3455596797E+03      0.6417527988E+05      0.1933484209E+00
          0                 4           3            36   71     2       0.4328989637E-02      36   71    2       0.5387938438E+01      0.6688039689E+01      0.3455596797E+03      0.4328989637E-02

    ------------------------------------------------
       NWT REQUIRED            4 OUTER ITERATIONS 
       AND A TOTAL OF         30 INNER ITERATIONS.
    ------------------------------------------------

 NO OUTPUT CONTROL FOR STRESS PERIOD   67   TIME STEP    5
 
 SOLVING FOR HEAD 
                                                   Max.-Head-Change                        Max.-Flux-Residual
  Residual-Control   Outer-Iter.   Inner-Iter.     Column Row Layer    Max.-Head-Change    Column Row Layer    Max.-Flux-Residual            L2-New               L2-Old           Solver-Max-Delh
          0                 1          11            28   49     2       0.4050698267E+01      28   49    2       0.6487590837E+05      0.6016782142E+06      0.6688039689E+01      0.4050698267E+01
          0                 2          10            85   52     2       0.1257936487E+01      85   52    2       0.1126847984E+05      0.6292864789E+05      0.6016782142E+06      0.1257936487E+01
          0                 3           6            85   52     2      -0.1143507511E+00      85   52    2      -0.1126132891E+04      0.1538887891E+04      0.6292864789E+05     -0.1143507511E+00
          0                 4           3            59   97     1       0.4689872735E-03      35   54    3       0.3176971752E+01      0.3905625639E+01      0.1538887891E+04      0.4689872735E-03

    ------------------------------------------------
       NWT REQUIRED            4 OUTER ITERATIONS 
       AND A TOTAL OF         30 INNER ITERATIONS.
    ------------------------------------------------

 NO OUTPUT CONTROL FOR STRESS PERIOD   67   TIME STEP    6
 
 SOLVING FOR HEAD 
                                                   Max.-Head-Change                        Max.-Flux-Residual
  Residual-Control   Outer-Iter.   Inner-Iter.     Column Row Layer    Max.-Head-Change    Column Row Layer    Max.-Flux-Residual            L2-New               L2-Old           Solver-Max-Delh
          0                 1          11            28   49     2       0.3659506649E+01      28   49    2       0.5889529679E+05      0.5841654985E+06      0.3905625639E+01      0.3659506649E+01
          0                 2          10            28   49     2      -0.3418096052E+00      69   21    1      -0.1098921298E+05      0.6029622557E+05      0.5841654985E+06     -0.3418096052E+00
          0                 3           6            30   45     2      -0.4541636296E-02      92   74    2      -0.1064057578E+02      0.4366236471E+02      0.6029622557E+05     -0.4541636296E-02

    ------------------------------------------------
       NWT REQUIRED            3 OUTER ITERATIONS 
       AND A TOTAL OF         27 INNER ITERATIONS.
    ------------------------------------------------

 NO OUTPUT CONTROL FOR STRESS PERIOD   67   TIME STEP    7
 
 SOLVING FOR HEAD 
                                                   Max.-Head-Change                        Max.-Flux-Residual
  Residual-Control   Outer-Iter.   Inner-Iter.     Column Row Layer    Max.-Head-Change    Column Row Layer    Max.-Flux-Residual            L2-New               L2-Old           Solver-Max-Delh
          0                 1          11            28   49     2       0.3308657272E+01      28   49    2       0.5323145985E+05      0.5679738723E+06      0.4366236471E+02      0.3308657272E+01
          0                 2          10            28   49     2      -0.3080832029E+00      30   19    1      -0.9355581276E+04      0.5926508442E+05      0.5679738723E+06     -0.3080832029E+00
          0                 3           7            30   19     2       0.1443717084E-01      30   19    2       0.1845750740E+04      0.2030890709E+04      0.5926508442E+05      0.1443717084E-01
          0                 4           5            30   19     2       0.1299980474E-02      30   19    2       0.1661009879E+03      0.1661193089E+03      0.2030890709E+04      0.1299980474E-02

    ------------------------------------------------
       NWT REQUIRED            4 OUTER ITERATIONS 
       AND A TOTAL OF         33 INNER ITERATIONS.
    ------------------------------------------------

 NO OUTPUT CONTROL FOR STRESS PERIOD   67   TIME STEP    8
 
 SOLVING FOR HEAD 
                                                   Max.-Head-Change                        Max.-Flux-Residual
  Residual-Control   Outer-Iter.   Inner-Iter.     Column Row Layer    Max.-Head-Change    Column Row Layer    Max.-Flux-Residual            L2-New               L2-Old           Solver-Max-Delh
          0                 1          11            28   49     2       0.3001561245E+01      28   49    2       0.4814557667E+05      0.5543568274E+06      0.1661193089E+03      0.3001561245E+01
          0                 2          10            32   49     2      -0.3278860512E+00      30   19    2       0.9705221175E+04      0.5856596422E+05      0.5543568274E+06     -0.3278860512E+00
          0                 3           6            72   95     1       0.1262414018E-01      30   19    2      -0.8476714973E+03      0.9205727994E+03      0.5856596422E+05      0.1262414018E-01
          0                 4           3            85   85     2      -0.3266722797E-03      26   49    2       0.2253830444E+01      0.2319965340E+01      0.9205727994E+03     -0.3266722797E-03

    ------------------------------------------------
       NWT REQUIRED            4 OUTER ITERATIONS 
       AND A TOTAL OF         30 INNER ITERATIONS.
    ------------------------------------------------

 NO OUTPUT CONTROL FOR STRESS PERIOD   67   TIME STEP    9
 
 SOLVING FOR HEAD 
                                                   Max.-Head-Change                        Max.-Flux-Residual
  Residual-Control   Outer-Iter.   Inner-Iter.     Column Row Layer    Max.-Head-Change    Column Row Layer    Max.-Flux-Residual            L2-New               L2-Old           Solver-Max-Delh
          0                 1          11            70   19     2       0.3162517511E+01      28   49    2       0.4369149763E+05      0.5426598796E+06      0.2319965340E+01      0.3162517511E+01
          0                 2          10            25   53     2      -0.4245284194E+00      25   53    2      -0.1625267341E+05      0.6246050051E+05      0.5426598796E+06     -0.4245284194E+00
          0                 3           6            77   76     1       0.2975293363E-01      63  112    1      -0.9649463563E+03      0.1150317676E+04      0.6246050051E+05      0.2975293363E-01
          0                 4           5            63  112     1      -0.2496718449E-02      63  112    1      -0.8687173096E+02      0.9856137688E+02      0.1150317676E+04     -0.2496718449E-02

    ------------------------------------------------
       NWT REQUIRED            4 OUTER ITERATIONS 
       AND A TOTAL OF         32 INNER ITERATIONS.
    ------------------------------------------------

 NO OUTPUT CONTROL FOR STRESS PERIOD   67   TIME STEP   10
 
 SOLVING FOR HEAD 
                                                   Max.-Head-Change                        Max.-Flux-Residual
  Residual-Control   Outer-Iter.   Inner-Iter.     Column Row Layer    Max.-Head-Change    Column Row Layer    Max.-Flux-Residual            L2-New               L2-Old           Solver-Max-Delh
          0                 1          11            28   49     2       0.2506867188E+01      70   19    1       0.4116800446E+05      0.5328858200E+06      0.9856137688E+02      0.2506867188E+01
          0                 2          10            34   67     2      -0.1201954575E+01      15   16    1      -0.1101690501E+05      0.5627997841E+05      0.5328858200E+06     -0.1201954575E+01
          0                 3           6            34   67     2       0.5795676301E-01      28   18    2      -0.9655267247E+03      0.1086750326E+04      0.5627997841E+05      0.5795676301E-01
          0                 4           3            34   67     1       0.2522910081E-02      34   67    2       0.1600420340E+01      0.3088938188E+01      0.1086750326E+04      0.2522910081E-02

    ------------------------------------------------
       NWT REQUIRED            4 OUTER ITERATIONS 
       AND A TOTAL OF         30 INNER ITERATIONS.
    ------------------------------------------------

 NO OUTPUT CONTROL FOR STRESS PERIOD   67   TIME STEP   11
 
 SOLVING FOR HEAD 
                                                   Max.-Head-Change                        Max.-Flux-Residual
  Residual-Control   Outer-Iter.   Inner-Iter.     Column Row Layer    Max.-Head-Change    Column Row Layer    Max.-Flux-Residual            L2-New               L2-Old           Solver-Max-Delh
          0                 1          11            34   67     2      -0.3612487913E+01      70   19    1       0.3856756549E+05      0.5237648595E+06      0.3088938188E+01     -0.3612487913E+01
          0                 2          10            61   83     2       0.2237597061E+00      31   19    1      -0.8908192295E+04      0.5462461951E+05      0.5237648595E+06      0.2237597061E+00
          0                 3           6            61   83     2      -0.2037004858E-01      61   83    2      -0.8002743176E+03      0.8375881306E+03      0.5462461951E+05     -0.2037004858E-01
          0                 4           3            34   67     1       0.3181387234E-03      14   19    2       0.6651756093E+00      0.8231074337E+00      0.8375881306E+03      0.3181387234E-03

    ------------------------------------------------
       NWT REQUIRED            4 OUTER ITERATIONS 
       AND A TOTAL OF         30 INNER ITERATIONS.
    ------------------------------------------------

 OUTPUT CONTROL FOR STRESS PERIOD   67   TIME STEP   12
    SAVE BUDGET
 UBDSV1 SAVING "         STORAGE" ON UNIT  39 AT TIME STEP 12, STRESS PERIOD  67
 UBDSV2 SAVING "   CONSTANT HEAD" ON UNIT  39 AT TIME STEP 12, STRESS PERIOD  67
 UBDSV1 SAVING "FLOW RIGHT FACE " ON UNIT  39 AT TIME STEP 12, STRESS PERIOD  67
 UBDSV1 SAVING "FLOW FRONT FACE " ON UNIT  39 AT TIME STEP 12, STRESS PERIOD  67
 UBDSV1 SAVING "FLOW LOWER FACE " ON UNIT  39 AT TIME STEP 12, STRESS PERIOD  67
 UBDSV4 SAVING "           WELLS" ON UNIT  39 AT TIME STEP 12, STRESS PERIOD  67
 UBDSV3 SAVING "              ET" ON UNIT  39 AT TIME STEP 12, STRESS PERIOD  67
 UBDSV3 SAVING "        RECHARGE" ON UNIT  39 AT TIME STEP 12, STRESS PERIOD  67
1
  VOLUMETRIC BUDGET FOR ENTIRE MODEL AT END OF TIME STEP   12, STRESS PERIOD  67
  ------------------------------------------------------------------------------

     CUMULATIVE VOLUMES      L**3       RATES FOR THIS TIME STEP      L**3/T
     ------------------                 ------------------------

           IN:                                      IN:
           ---                                      ---
             STORAGE     =431473819648.0000               STORAGE     =     9114118.0000
       CONSTANT HEAD     = 46047592448.0000         CONSTANT HEAD     =     2556079.0000
               WELLS     = 29993396224.0000                 WELLS     =     1225642.0000
                  ET     =           0.0000                    ET     =           0.0000
            RECHARGE     =524312084480.0000              RECHARGE     =    40774220.0000

                TOTAL IN =       1.0318E+12                  TOTAL IN =    53670060.0000

          OUT:                                     OUT:
          ----                                     ----
             STORAGE     =114332844032.0000               STORAGE     =    15617741.0000
       CONSTANT HEAD     = 72277876736.0000         CONSTANT HEAD     =     1847939.3750
               WELLS     =821621751808.0000                 WELLS     =    35560308.0000
                  ET     = 23593242624.0000                    ET     =      644073.7500
            RECHARGE     =           0.0000              RECHARGE     =           0.0000

               TOTAL OUT =       1.0318E+12                 TOTAL OUT =    53670060.0000

                IN - OUT =     1245184.0000                  IN - OUT =           0.0000

     PERCENT DISCREPANCY =           0.00         PERCENT DISCREPANCY =           0.00






         TIME SUMMARY AT END OF TIME STEP   12 IN STRESS PERIOD   67
                    SECONDS     MINUTES      HOURS       DAYS        YEARS
                    -----------------------------------------------------------
   TIME STEP LENGTH 2.62800E+06  43800.      730.00      30.417     8.32763E-02
 STRESS PERIOD TIME 3.15360E+07 5.25600E+05  8760.0      365.00     0.99932    
         TOTAL TIME 2.11437E+09 3.52396E+07 5.87326E+05  24472.      67.000    
1
1
                            STRESS PERIOD NO.   68, LENGTH =   365.0000    
                            -----------------------------------------------

                              NUMBER OF TIME STEPS =    12

                               MULTIPLIER FOR DELT =     1.000

                            INITIAL TIME STEP SIZE =   30.41667    

   1568 WELLS

 REUSING SURF FROM LAST STRESS PERIOD

 REUSING EVTR FROM LAST STRESS PERIOD

 REUSING EXDP FROM LAST STRESS PERIOD



                           RECHARGE
 READING ON UNIT   16 WITH FORMAT: (15F5.0)            


     63 TIME-VARIANT SPECIFIED-HEAD CELLS
 
 SOLVING FOR HEAD 
                                                   Max.-Head-Change                        Max.-Flux-Residual
  Residual-Control   Outer-Iter.   Inner-Iter.     Column Row Layer    Max.-Head-Change    Column Row Layer    Max.-Flux-Residual            L2-New               L2-Old           Solver-Max-Delh
          0                 1          12            84   50     3       0.4954180348E+02      29   52    3      -0.3565808878E+06      0.1130932202E+07      0.8231074337E+00      0.4954180348E+02
          0                 2          10            84   50     3      -0.4458767787E+01      29   52    3       0.3565808931E+05      0.1134348641E+06      0.1130932202E+07     -0.4458767787E+01
          0                 3           6            66   19     1       0.1316475933E+00      66   19    1       0.1102624518E+04      0.1210387499E+04      0.1134348641E+06      0.1316475933E+00
          0                 4           5            65    5     2       0.5453261295E-02      30   53    3      -0.2074161693E+02      0.2376578648E+02      0.1210387499E+04      0.5453261295E-02

    ------------------------------------------------
       NWT REQUIRED            4 OUTER ITERATIONS 
       AND A TOTAL OF         33 INNER ITERATIONS.
    ------------------------------------------------

 NO OUTPUT CONTROL FOR STRESS PERIOD   68   TIME STEP    1
 
 SOLVING FOR HEAD 
                                                   Max.-Head-Change                        Max.-Flux-Residual
  Residual-Control   Outer-Iter.   Inner-Iter.     Column Row Layer    Max.-Head-Change    Column Row Layer    Max.-Flux-Residual            L2-New               L2-Old           Solver-Max-Delh
          0                 1          11            65    5     2      -0.2304071697E+02      29   54    2      -0.1512087378E+06      0.6180257129E+06      0.2376578648E+02     -0.2304071697E+02
          0                 2          10            77   46     1      -0.2413040324E+01      29   54    2       0.1427242972E+05      0.6420650255E+05      0.6180257129E+06     -0.2413040324E+01
          0                 3           6            77   46     1       0.1961526146E+00      76   70    1       0.8596243526E+03      0.1508438687E+04      0.6420650255E+05      0.1961526146E+00
          0                 4           3            65    5     2       0.3230400846E-02      77   46    1       0.6780266110E+01      0.9447938427E+01      0.1508438687E+04      0.3230400846E-02

    ------------------------------------------------
       NWT REQUIRED            4 OUTER ITERATIONS 
       AND A TOTAL OF         30 INNER ITERATIONS.
    ------------------------------------------------

 NO OUTPUT CONTROL FOR STRESS PERIOD   68   TIME STEP    2
 
 SOLVING FOR HEAD 
                                                   Max.-Head-Change                        Max.-Flux-Residual
  Residual-Control   Outer-Iter.   Inner-Iter.     Column Row Layer    Max.-Head-Change    Column Row Layer    Max.-Flux-Residual            L2-New               L2-Old           Solver-Max-Delh
          0                 1          11            80   52     3       0.2035385331E+01      29   54    2      -0.7543428710E+05      0.5176587471E+06      0.9447938427E+01      0.2035385331E+01
          0                 2           9            74   83     2       0.6000750010E+00      29   54    2       0.7347330559E+04      0.5237325168E+05      0.5176587471E+06      0.6000750010E+00
          0                 3           6            74   83     2      -0.5455253188E-01      43   32    1      -0.3266460242E+04      0.3303976491E+04      0.5237325168E+05     -0.5455253188E-01
          0                 4           4            43   32     1      -0.2769961148E-02      43   32    1      -0.2941439136E+03      0.2941968476E+03      0.3303976491E+04     -0.2769961148E-02

    ------------------------------------------------
       NWT REQUIRED            4 OUTER ITERATIONS 
       AND A TOTAL OF         30 INNER ITERATIONS.
    ------------------------------------------------

 NO OUTPUT CONTROL FOR STRESS PERIOD   68   TIME STEP    3
 
 SOLVING FOR HEAD 
                                                   Max.-Head-Change                        Max.-Flux-Residual
  Residual-Control   Outer-Iter.   Inner-Iter.     Column Row Layer    Max.-Head-Change    Column Row Layer    Max.-Flux-Residual            L2-New               L2-Old           Solver-Max-Delh
          0                 1          11            62   96     1      -0.1460734403E+01      62   96    2      -0.5112207038E+05      0.4693547833E+06      0.2941968476E+03     -0.1460734403E+01
          0                 2           9            38   71     2      -0.6620008862E+00      33   33    1      -0.1294436268E+05      0.4989429023E+05      0.4693547833E+06     -0.6620008862E+00
          0                 3           6            38   71     2       0.4750276951E-01      43   32    1       0.1004982404E+04      0.1086791032E+04      0.4989429023E+05      0.4750276951E-01
          0                 4           3            38   71     2       0.9193063871E-03      38   71    2       0.1329340213E+01      0.1614627006E+01      0.1086791032E+04      0.9193063871E-03

    ------------------------------------------------
       NWT REQUIRED            4 OUTER ITERATIONS 
       AND A TOTAL OF         29 INNER ITERATIONS.
    ------------------------------------------------

 NO OUTPUT CONTROL FOR STRESS PERIOD   68   TIME STEP    4
 
 SOLVING FOR HEAD 
                                                   Max.-Head-Change                        Max.-Flux-Residual
  Residual-Control   Outer-Iter.   Inner-Iter.     Column Row Layer    Max.-Head-Change    Column Row Layer    Max.-Flux-Residual            L2-New               L2-Old           Solver-Max-Delh
          0                 1          11            38   71     2      -0.2601985403E+01      62   96    2      -0.4823979110E+05      0.4401265349E+06      0.1614627006E+01     -0.2601985403E+01
          0                 2           9            38   71     2       0.1786597355E+00      24   27    1      -0.8668591246E+04      0.4537327328E+05      0.4401265349E+06      0.1786597355E+00
          0                 3           5            38   71     2       0.3409828457E-02      38   71    2       0.4879909029E+01      0.2810009813E+02      0.4537327328E+05      0.3409828457E-02

    ------------------------------------------------
       NWT REQUIRED            3 OUTER ITERATIONS 
       AND A TOTAL OF         25 INNER ITERATIONS.
    ------------------------------------------------

 NO OUTPUT CONTROL FOR STRESS PERIOD   68   TIME STEP    5
 
 SOLVING FOR HEAD 
                                                   Max.-Head-Change                        Max.-Flux-Residual
  Residual-Control   Outer-Iter.   Inner-Iter.     Column Row Layer    Max.-Head-Change    Column Row Layer    Max.-Flux-Residual            L2-New               L2-Old           Solver-Max-Delh
          0                 1          11            62   96     1      -0.1342225529E+01      62   96    2      -0.4593627179E+05      0.4205082224E+06      0.2810009813E+02     -0.1342225529E+01
          0                 2           9            62   96     1       0.1184270667E+00      62   96    2       0.4580360815E+04      0.4217971938E+05      0.4205082224E+06      0.1184270667E+00
          0                 3           5            85   85     2      -0.2009174141E-02      25   28    2      -0.8275301708E+02      0.9533045595E+02      0.4217971938E+05     -0.2009174141E-02

    ------------------------------------------------
       NWT REQUIRED            3 OUTER ITERATIONS 
       AND A TOTAL OF         25 INNER ITERATIONS.
    ------------------------------------------------

 NO OUTPUT CONTROL FOR STRESS PERIOD   68   TIME STEP    6
 
 SOLVING FOR HEAD 
                                                   Max.-Head-Change                        Max.-Flux-Residual
  Residual-Control   Outer-Iter.   Inner-Iter.     Column Row Layer    Max.-Head-Change    Column Row Layer    Max.-Flux-Residual            L2-New               L2-Old           Solver-Max-Delh
          0                 1          11            62   96     1      -0.1298028108E+01      62   96    2      -0.4406696728E+05      0.4059904504E+06      0.9533045595E+02     -0.1298028108E+01
          0                 2           9            78   52     1      -0.4684657200E+00      78   52    1      -0.1600668985E+05      0.4536396543E+05      0.4059904504E+06     -0.4684657200E+00
          0                 3           5            85   85     2      -0.2007638768E-02      56   79    1      -0.1377113220E+02      0.2997536046E+02      0.4536396543E+05     -0.2007638768E-02

    ------------------------------------------------
       NWT REQUIRED            3 OUTER ITERATIONS 
       AND A TOTAL OF         25 INNER ITERATIONS.
    ------------------------------------------------

 NO OUTPUT CONTROL FOR STRESS PERIOD   68   TIME STEP    7
 
 SOLVING FOR HEAD 
                                                   Max.-Head-Change                        Max.-Flux-Residual
  Residual-Control   Outer-Iter.   Inner-Iter.     Column Row Layer    Max.-Head-Change    Column Row Layer    Max.-Flux-Residual            L2-New               L2-Old           Solver-Max-Delh
          0                 1          11            62   96     1      -0.1260870517E+01      62   96    2      -0.4252687710E+05      0.3947157903E+06      0.2997536046E+02     -0.1260870517E+01
          0                 2           9            74   65     1      -0.3542184799E+00      38   23    1      -0.1161796014E+05      0.4199927829E+05      0.3947157903E+06     -0.3542184799E+00
          0                 3           5            74   65     1       0.2737463712E-01      38   23    2      -0.2466435240E+03      0.2915927116E+03      0.4199927829E+05      0.2737463712E-01
          0                 4           2            74   65     1       0.3760916473E-03      74   65    2      -0.8263197113E+00      0.1137312118E+01      0.2915927116E+03      0.3760916473E-03

    ------------------------------------------------
       NWT REQUIRED            4 OUTER ITERATIONS 
       AND A TOTAL OF         27 INNER ITERATIONS.
    ------------------------------------------------

 NO OUTPUT CONTROL FOR STRESS PERIOD   68   TIME STEP    8
 
 SOLVING FOR HEAD 
                                                   Max.-Head-Change                        Max.-Flux-Residual
  Residual-Control   Outer-Iter.   Inner-Iter.     Column Row Layer    Max.-Head-Change    Column Row Layer    Max.-Flux-Residual            L2-New               L2-Old           Solver-Max-Delh
          0                 1          11            74   65     1      -0.2680855589E+01      62   96    2      -0.4123981803E+05      0.3854999314E+06      0.1137312118E+01     -0.2680855589E+01
          0                 2           9            65   92     1      -0.2624537086E+00      62   96    2       0.4113700583E+04      0.3868461693E+05      0.3854999314E+06     -0.2624537086E+00
          0                 3           5            65   92     1       0.2270080587E-01      65   92    1       0.1330683270E+03      0.1512304004E+03      0.3868461693E+05      0.2270080587E-01
          0                 4           2            85   85     2      -0.2994719169E-03      65   92    1       0.5551206302E+00      0.6107458486E+00      0.1512304004E+03     -0.2994719169E-03

    ------------------------------------------------
       NWT REQUIRED            4 OUTER ITERATIONS 
       AND A TOTAL OF         27 INNER ITERATIONS.
    ------------------------------------------------

 NO OUTPUT CONTROL FOR STRESS PERIOD   68   TIME STEP    9
 
 SOLVING FOR HEAD 
                                                   Max.-Head-Change                        Max.-Flux-Residual
  Residual-Control   Outer-Iter.   Inner-Iter.     Column Row Layer    Max.-Head-Change    Column Row Layer    Max.-Flux-Residual            L2-New               L2-Old           Solver-Max-Delh
          0                 1          11            62   96     1      -0.1202023075E+01      62   96    2      -0.4015009508E+05      0.3782058751E+06      0.6107458486E+00     -0.1202023075E+01
          0                 2           9            39   71     2      -0.1918547763E+01      18   12    2       0.4140171376E+04      0.3834604917E+05      0.3782058751E+06     -0.1918547763E+01
          0                 3           5            39   71     2       0.1401949762E+00      18   12    2      -0.3324283571E+03      0.4650247491E+03      0.3834604917E+05      0.1401949762E+00
          0                 4           2            39   71     2       0.2482315606E-02      39   71    2       0.3899150804E+01      0.4404247898E+01      0.4650247491E+03      0.2482315606E-02

    ------------------------------------------------
       NWT REQUIRED            4 OUTER ITERATIONS 
       AND A TOTAL OF         27 INNER ITERATIONS.
    ------------------------------------------------

 NO OUTPUT CONTROL FOR STRESS PERIOD   68   TIME STEP   10
 
 SOLVING FOR HEAD 
                                                   Max.-Head-Change                        Max.-Flux-Residual
  Residual-Control   Outer-Iter.   Inner-Iter.     Column Row Layer    Max.-Head-Change    Column Row Layer    Max.-Flux-Residual            L2-New               L2-Old           Solver-Max-Delh
          0                 1          11            39   71     2      -0.1188234758E+01      62   96    2      -0.3921651766E+05      0.3719587324E+06      0.4404247898E+01     -0.1188234758E+01
          0                 2           9            64   26     2       0.1136678616E+00      64   26    2       0.5285242115E+04      0.3781929032E+05      0.3719587324E+06      0.1136678616E+00
          0                 3           5            36   22     2      -0.2716226333E-02      36   22    2      -0.1324026082E+03      0.1423617394E+03      0.3781929032E+05     -0.2716226333E-02

    ------------------------------------------------
       NWT REQUIRED            3 OUTER ITERATIONS 
       AND A TOTAL OF         25 INNER ITERATIONS.
    ------------------------------------------------

 NO OUTPUT CONTROL FOR STRESS PERIOD   68   TIME STEP   11
 
 SOLVING FOR HEAD 
                                                   Max.-Head-Change                        Max.-Flux-Residual
  Residual-Control   Outer-Iter.   Inner-Iter.     Column Row Layer    Max.-Head-Change    Column Row Layer    Max.-Flux-Residual            L2-New               L2-Old           Solver-Max-Delh
          0                 1          11            62   96     1      -0.1157624180E+01      62   96    2      -0.3840821729E+05      0.3664963464E+06      0.1423617394E+03     -0.1157624180E+01
          0                 2           9            40   62     2      -0.5293128056E+00      64   95    2       0.6303858052E+04      0.3763827831E+05      0.3664963464E+06     -0.5293128056E+00
          0                 3           6            83   52     1      -0.2210589929E+00      83   52    1      -0.1109266238E+05      0.1109965542E+05      0.3763827831E+05     -0.2210589929E+00
          0                 4           4            83   52     1      -0.1992558384E-01      83   52    1      -0.1001551558E+04      0.1003071992E+04      0.1109965542E+05     -0.1992558384E-01
          0                 5           3            83   52     1      -0.1791735836E-02      83   52    1      -0.9004918930E+02      0.9018506610E+02      0.1003071992E+04     -0.1791735836E-02

    ------------------------------------------------
       NWT REQUIRED            5 OUTER ITERATIONS 
       AND A TOTAL OF         33 INNER ITERATIONS.
    ------------------------------------------------

 OUTPUT CONTROL FOR STRESS PERIOD   68   TIME STEP   12
    SAVE BUDGET
 UBDSV1 SAVING "         STORAGE" ON UNIT  39 AT TIME STEP 12, STRESS PERIOD  68
 UBDSV2 SAVING "   CONSTANT HEAD" ON UNIT  39 AT TIME STEP 12, STRESS PERIOD  68
 UBDSV1 SAVING "FLOW RIGHT FACE " ON UNIT  39 AT TIME STEP 12, STRESS PERIOD  68
 UBDSV1 SAVING "FLOW FRONT FACE " ON UNIT  39 AT TIME STEP 12, STRESS PERIOD  68
 UBDSV1 SAVING "FLOW LOWER FACE " ON UNIT  39 AT TIME STEP 12, STRESS PERIOD  68
 UBDSV4 SAVING "           WELLS" ON UNIT  39 AT TIME STEP 12, STRESS PERIOD  68
 UBDSV3 SAVING "              ET" ON UNIT  39 AT TIME STEP 12, STRESS PERIOD  68
 UBDSV3 SAVING "        RECHARGE" ON UNIT  39 AT TIME STEP 12, STRESS PERIOD  68
1
  VOLUMETRIC BUDGET FOR ENTIRE MODEL AT END OF TIME STEP   12, STRESS PERIOD  68
  ------------------------------------------------------------------------------

     CUMULATIVE VOLUMES      L**3       RATES FOR THIS TIME STEP      L**3/T
     ------------------                 ------------------------

           IN:                                      IN:
           ---                                      ---
             STORAGE     =435508772864.0000               STORAGE     =    10059378.0000
       CONSTANT HEAD     = 46970683392.0000         CONSTANT HEAD     =     2519820.5000
               WELLS     = 30440753152.0000                 WELLS     =     1225642.0000
                  ET     =           0.0000                    ET     =           0.0000
            RECHARGE     =537219006464.0000              RECHARGE     =    35361772.0000

                TOTAL IN =       1.0501E+12                  TOTAL IN =    49166612.0000

          OUT:                                     OUT:
          ----                                     ----
             STORAGE     =118222209024.0000               STORAGE     =     9710074.0000
       CONSTANT HEAD     = 72952676352.0000         CONSTANT HEAD     =     1865895.1250
               WELLS     =835176955904.0000                 WELLS     =    37124872.0000
                  ET     = 23786172416.0000                    ET     =      465781.8438
            RECHARGE     =           0.0000              RECHARGE     =           0.0000

               TOTAL OUT =       1.0501E+12                 TOTAL OUT =    49166620.0000

                IN - OUT =     1179648.0000                  IN - OUT =          -8.0000

     PERCENT DISCREPANCY =           0.00         PERCENT DISCREPANCY =          -0.00






         TIME SUMMARY AT END OF TIME STEP   12 IN STRESS PERIOD   68
                    SECONDS     MINUTES      HOURS       DAYS        YEARS
                    -----------------------------------------------------------
   TIME STEP LENGTH 2.62800E+06  43800.      730.00      30.417     8.32763E-02
 STRESS PERIOD TIME 3.15360E+07 5.25600E+05  8760.0      365.00     0.99932    
         TOTAL TIME 2.14591E+09 3.57652E+07 5.96086E+05  24837.      68.000    
1
1
                            STRESS PERIOD NO.   69, LENGTH =   366.0000    
                            -----------------------------------------------

                              NUMBER OF TIME STEPS =    12

                               MULTIPLIER FOR DELT =     1.000

                            INITIAL TIME STEP SIZE =   30.50000    

   1551 WELLS

 REUSING SURF FROM LAST STRESS PERIOD

 REUSING EVTR FROM LAST STRESS PERIOD

 REUSING EXDP FROM LAST STRESS PERIOD



                           RECHARGE
 READING ON UNIT   16 WITH FORMAT: (15F5.0)            


     63 TIME-VARIANT SPECIFIED-HEAD CELLS
 
 SOLVING FOR HEAD 
                                                   Max.-Head-Change                        Max.-Flux-Residual
  Residual-Control   Outer-Iter.   Inner-Iter.     Column Row Layer    Max.-Head-Change    Column Row Layer    Max.-Flux-Residual            L2-New               L2-Old           Solver-Max-Delh
          0                 1          11            84   56     3       0.1936545764E+02      30   53    1       0.1935451713E+06      0.9112800811E+06      0.9018506610E+02      0.1936545764E+02
          0                 2          10            61   34     3       0.9062814707E+01      61   34    3       0.1626791005E+06      0.1872236848E+06      0.9112800811E+06      0.9062814707E+01
          0                 3           6            60   34     3      -0.3731156379E+00      76   67    1      -0.5295256710E+04      0.7657254133E+04      0.1872236848E+06     -0.3731156379E+00
          0                 4           5            60   34     3      -0.3357843033E-01      76   67    1      -0.4776184573E+03      0.6674695856E+03      0.7657254133E+04     -0.3357843033E-01
          0                 5           4            60   34     3      -0.3019042804E-02      76   67    1      -0.4294650960E+02      0.6001460573E+02      0.6674695856E+03     -0.3019042804E-02

    ------------------------------------------------
       NWT REQUIRED            5 OUTER ITERATIONS 
       AND A TOTAL OF         36 INNER ITERATIONS.
    ------------------------------------------------

 NO OUTPUT CONTROL FOR STRESS PERIOD   69   TIME STEP    1
 
 SOLVING FOR HEAD 
                                                   Max.-Head-Change                        Max.-Flux-Residual
  Residual-Control   Outer-Iter.   Inner-Iter.     Column Row Layer    Max.-Head-Change    Column Row Layer    Max.-Flux-Residual            L2-New               L2-Old           Solver-Max-Delh
          0                 1          11            31   61     2       0.4738759412E+01      31   61    2       0.1415741970E+06      0.6058431200E+06      0.6001460573E+02      0.4738759412E+01
          0                 2          10            76   67     1      -0.3700179754E+01      31   61    2      -0.1462328301E+05      0.6142653162E+05      0.6058431200E+06     -0.3700179754E+01
          0                 3           6            76   67     1       0.2600065338E+00      72   15    1      -0.9506168577E+04      0.9526644442E+04      0.6142653162E+05      0.2600065338E+00
          0                 4           4            72   15     1      -0.2328474126E-01      72   15    1      -0.8561845693E+03      0.8562874855E+03      0.9526644442E+04     -0.2328474126E-01
          0                 5           3            72   15     1      -0.2093696518E-02      72   15    1      -0.7697614509E+02      0.7698227824E+02      0.8562874855E+03     -0.2093696518E-02

    ------------------------------------------------
       NWT REQUIRED            5 OUTER ITERATIONS 
       AND A TOTAL OF         34 INNER ITERATIONS.
    ------------------------------------------------

 NO OUTPUT CONTROL FOR STRESS PERIOD   69   TIME STEP    2
 
 SOLVING FOR HEAD 
                                                   Max.-Head-Change                        Max.-Flux-Residual
  Residual-Control   Outer-Iter.   Inner-Iter.     Column Row Layer    Max.-Head-Change    Column Row Layer    Max.-Flux-Residual            L2-New               L2-Old           Solver-Max-Delh
          0                 1          11            31   61     2       0.3976416249E+01      31   61    2       0.1181008850E+06      0.5283530718E+06      0.7698227824E+02      0.3976416249E+01
          0                 2          10            72   15     1      -0.3849255248E+01      72   15    1      -0.2086869406E+05      0.5732084943E+05      0.5283530718E+06     -0.3849255248E+01
          0                 3           6            72   15     1       0.3317057547E+00      72   15    1       0.1980599422E+04      0.2080360178E+04      0.5732084943E+05      0.3317057547E+00
          0                 4           2            72   15     1       0.1554783768E-02      72   15    1       0.9145330247E+01      0.9275451876E+01      0.2080360178E+04      0.1554783768E-02

    ------------------------------------------------
       NWT REQUIRED            4 OUTER ITERATIONS 
       AND A TOTAL OF         29 INNER ITERATIONS.
    ------------------------------------------------

 NO OUTPUT CONTROL FOR STRESS PERIOD   69   TIME STEP    3
 
 SOLVING FOR HEAD 
                                                   Max.-Head-Change                        Max.-Flux-Residual
  Residual-Control   Outer-Iter.   Inner-Iter.     Column Row Layer    Max.-Head-Change    Column Row Layer    Max.-Flux-Residual            L2-New               L2-Old           Solver-Max-Delh
          0                 1          11            31   61     2       0.3367469579E+01      31   61    2       0.9919587615E+05      0.4871197450E+06      0.9275451876E+01      0.3367469579E+01
          0                 2          10            92   77     2      -0.6860230761E+01      32   61    2      -0.1012899768E+05      0.4971153056E+05      0.4871197450E+06     -0.6860230761E+01
          0                 3           6            84   50     2      -0.7114470189E-01      70   19    1      -0.2309710479E+04      0.2382991077E+04      0.4971153056E+05     -0.7114470189E-01
          0                 4           3            70   19     1      -0.4999685071E-02      70   19    1      -0.2078996157E+03      0.2079155469E+03      0.2382991077E+04     -0.4999685071E-02

    ------------------------------------------------
       NWT REQUIRED            4 OUTER ITERATIONS 
       AND A TOTAL OF         30 INNER ITERATIONS.
    ------------------------------------------------

 NO OUTPUT CONTROL FOR STRESS PERIOD   69   TIME STEP    4
 
 SOLVING FOR HEAD 
                                                   Max.-Head-Change                        Max.-Flux-Residual
  Residual-Control   Outer-Iter.   Inner-Iter.     Column Row Layer    Max.-Head-Change    Column Row Layer    Max.-Flux-Residual            L2-New               L2-Old           Solver-Max-Delh
          0                 1          11            92   77     2      -0.5369002642E+02      31   61    2       0.8399469356E+05      0.4608099954E+06      0.2079155469E+03     -0.5369002642E+02
          0                 2          10            70   19     1      -0.2699557150E+01      70   19    1      -0.1999015411E+05      0.5137289150E+05      0.4608099954E+06     -0.2699557150E+01
          0                 3           6            70   19     1       0.2352535963E+00      70   19    1       0.1917950051E+04      0.2093059087E+04      0.5137289150E+05      0.2352535963E+00
          0                 4           2            92   77     2       0.2994937056E-02      70   19    1       0.7033832166E+01      0.7299820092E+01      0.2093059087E+04      0.2994937056E-02

    ------------------------------------------------
       NWT REQUIRED            4 OUTER ITERATIONS 
       AND A TOTAL OF         29 INNER ITERATIONS.
    ------------------------------------------------

 NO OUTPUT CONTROL FOR STRESS PERIOD   69   TIME STEP    5
 
 SOLVING FOR HEAD 
                                                   Max.-Head-Change                        Max.-Flux-Residual
  Residual-Control   Outer-Iter.   Inner-Iter.     Column Row Layer    Max.-Head-Change    Column Row Layer    Max.-Flux-Residual            L2-New               L2-Old           Solver-Max-Delh
          0                 1          11            31   61     2       0.2480372793E+01      31   61    2       0.7176635305E+05      0.4432526845E+06      0.7299820092E+01      0.2480372793E+01
          0                 2          10            56   32     2      -0.4455260484E+00      31   61    2      -0.7264758140E+04      0.4512003554E+05      0.4432526845E+06     -0.4455260484E+00
          0                 3           5            56   32     2       0.3447876929E-01      63  111    1      -0.6254108067E+03      0.6389708974E+03      0.4512003554E+05      0.3447876929E-01
          0                 4           2            63  111     1      -0.1609083146E-02      63  111    1      -0.5629850732E+02      0.5632692134E+02      0.6389708974E+03     -0.1609083146E-02

    ------------------------------------------------
       NWT REQUIRED            4 OUTER ITERATIONS 
       AND A TOTAL OF         28 INNER ITERATIONS.
    ------------------------------------------------

 NO OUTPUT CONTROL FOR STRESS PERIOD   69   TIME STEP    6
 
 SOLVING FOR HEAD 
                                                   Max.-Head-Change                        Max.-Flux-Residual
  Residual-Control   Outer-Iter.   Inner-Iter.     Column Row Layer    Max.-Head-Change    Column Row Layer    Max.-Flux-Residual            L2-New               L2-Old           Solver-Max-Delh
          0                 1          11            56   32     2      -0.2222299911E+01      31   61    2       0.6190912012E+05      0.4296879533E+06      0.5632692134E+02     -0.2222299911E+01
          0                 2          10            35   71     2      -0.2124222049E+01      26   55    2      -0.1078413435E+05      0.4460840548E+05      0.4296879533E+06     -0.2124222049E+01
          0                 3           6            35   71     2       0.1392639458E+00      25   30    2      -0.3349683634E+03      0.4374142745E+03      0.4460840548E+05      0.1392639458E+00
          0                 4           3            35   71     2       0.3526580165E-02      35   71    2       0.3891882440E+01      0.5378111245E+01      0.4374142745E+03      0.3526580165E-02

    ------------------------------------------------
       NWT REQUIRED            4 OUTER ITERATIONS 
       AND A TOTAL OF         30 INNER ITERATIONS.
    ------------------------------------------------

 NO OUTPUT CONTROL FOR STRESS PERIOD   69   TIME STEP    7
 
 SOLVING FOR HEAD 
                                                   Max.-Head-Change                        Max.-Flux-Residual
  Residual-Control   Outer-Iter.   Inner-Iter.     Column Row Layer    Max.-Head-Change    Column Row Layer    Max.-Flux-Residual            L2-New               L2-Old           Solver-Max-Delh
          0                 1          11            31   61     2       0.1894740538E+01      31   61    2       0.5387236572E+05      0.4190930182E+06      0.5378111245E+01      0.1894740538E+01
          0                 2          10            67   99     1      -0.2816900222E+00      61   66    2       0.6828283425E+04      0.4282593823E+05      0.4190930182E+06     -0.2816900222E+00
          0                 3           6            67   99     1       0.2290584245E-01      65   53    2      -0.4852313015E+03      0.5533634552E+03      0.4282593823E+05      0.2290584245E-01
          0                 4           2            85   85     2      -0.2373256639E-03      67   99    1       0.5604632813E+00      0.6021401359E+00      0.5533634552E+03     -0.2373256639E-03

    ------------------------------------------------
       NWT REQUIRED            4 OUTER ITERATIONS 
       AND A TOTAL OF         29 INNER ITERATIONS.
    ------------------------------------------------

 NO OUTPUT CONTROL FOR STRESS PERIOD   69   TIME STEP    8
 
 SOLVING FOR HEAD 
                                                   Max.-Head-Change                        Max.-Flux-Residual
  Residual-Control   Outer-Iter.   Inner-Iter.     Column Row Layer    Max.-Head-Change    Column Row Layer    Max.-Flux-Residual            L2-New               L2-Old           Solver-Max-Delh
          0                 1          11            31   61     2       0.1680082534E+01      31   61    2       0.4731801604E+05      0.4106477916E+06      0.6021401359E+00      0.1680082534E+01
          0                 2          10            82   60     1      -0.3270689176E+01      26   31    1      -0.7558028344E+04      0.4325246462E+05      0.4106477916E+06     -0.3270689176E+01
          0                 3           6            82   60     1       0.1868424933E+00      44   32    1       0.6536356076E+03      0.7317827564E+03      0.4325246462E+05      0.1868424933E+00
          0                 4           3            82   60     1       0.6295104216E-02      82   60    1       0.6209375535E+01      0.6466269767E+01      0.7317827564E+03      0.6295104216E-02

    ------------------------------------------------
       NWT REQUIRED            4 OUTER ITERATIONS 
       AND A TOTAL OF         30 INNER ITERATIONS.
    ------------------------------------------------

 NO OUTPUT CONTROL FOR STRESS PERIOD   69   TIME STEP    9
 
 SOLVING FOR HEAD 
                                                   Max.-Head-Change                        Max.-Flux-Residual
  Residual-Control   Outer-Iter.   Inner-Iter.     Column Row Layer    Max.-Head-Change    Column Row Layer    Max.-Flux-Residual            L2-New               L2-Old           Solver-Max-Delh
          0                 1          11            82   60     1      -0.2871340518E+01      31   61    2       0.4196386469E+05      0.4036854603E+06      0.6466269767E+01     -0.2871340518E+01
          0                 2          10            82   60     1       0.1643331702E+00      21   24    1      -0.8671057953E+04      0.4241927707E+05      0.4036854603E+06      0.1643331702E+00
          0                 3           6            67   53     2      -0.1100256720E-01      67   53    2      -0.3911714733E+03      0.5685423587E+03      0.4241927707E+05     -0.1100256720E-01
          0                 4           2            85   85     2      -0.2345715352E-03      62  100    1      -0.2215741873E+00      0.3842058545E+00      0.5685423587E+03     -0.2345715352E-03

    ------------------------------------------------
       NWT REQUIRED            4 OUTER ITERATIONS 
       AND A TOTAL OF         29 INNER ITERATIONS.
    ------------------------------------------------

 NO OUTPUT CONTROL FOR STRESS PERIOD   69   TIME STEP   10
 
 SOLVING FOR HEAD 
                                                   Max.-Head-Change                        Max.-Flux-Residual
  Residual-Control   Outer-Iter.   Inner-Iter.     Column Row Layer    Max.-Head-Change    Column Row Layer    Max.-Flux-Residual            L2-New               L2-Old           Solver-Max-Delh
          0                 1          11            31   61     2       0.1359010512E+01      31   61    2       0.3757251499E+05      0.3979109353E+06      0.3842058545E+00      0.1359010512E+01
          0                 2          10            73   15     3       0.4316984885E+00      73   15    3       0.1270911115E+05      0.4266795036E+05      0.3979109353E+06      0.4316984885E+00
          0                 3           7            64  101     1      -0.7589851417E-01      64  101    1      -0.3215585275E+04      0.3897641146E+04      0.4266795036E+05     -0.7589851417E-01
          0                 4           3            64  101     1      -0.6847564890E-02      64  101    1      -0.2899651862E+03      0.3454845379E+03      0.3897641146E+04     -0.6847564890E-02

    ------------------------------------------------
       NWT REQUIRED            4 OUTER ITERATIONS 
       AND A TOTAL OF         31 INNER ITERATIONS.
    ------------------------------------------------

 NO OUTPUT CONTROL FOR STRESS PERIOD   69   TIME STEP   11
 
 SOLVING FOR HEAD 
                                                   Max.-Head-Change                        Max.-Flux-Residual
  Residual-Control   Outer-Iter.   Inner-Iter.     Column Row Layer    Max.-Head-Change    Column Row Layer    Max.-Flux-Residual            L2-New               L2-Old           Solver-Max-Delh
          0                 1          11            64   94     1      -0.1266923229E+01      61   96    2      -0.3469325156E+05      0.3928133158E+06      0.3454845379E+03     -0.1266923229E+01
          0                 2          10            64   95     1      -0.5787918286E+00      64   95    1      -0.8281844654E+04      0.4151067975E+05      0.3928133158E+06     -0.5787918286E+00
          0                 3           5            64   95     1       0.5146008377E-01      64   95    1       0.8100396668E+03      0.9637388942E+03      0.4151067975E+05      0.5146008377E-01
          0                 4           2            69   98     1       0.4074561842E-03      64   95    1       0.1513968073E+01      0.1869503985E+01      0.9637388942E+03      0.4074561842E-03

    ------------------------------------------------
       NWT REQUIRED            4 OUTER ITERATIONS 
       AND A TOTAL OF         28 INNER ITERATIONS.
    ------------------------------------------------

 OUTPUT CONTROL FOR STRESS PERIOD   69   TIME STEP   12
    SAVE BUDGET
 UBDSV1 SAVING "         STORAGE" ON UNIT  39 AT TIME STEP 12, STRESS PERIOD  69
 UBDSV2 SAVING "   CONSTANT HEAD" ON UNIT  39 AT TIME STEP 12, STRESS PERIOD  69
 UBDSV1 SAVING "FLOW RIGHT FACE " ON UNIT  39 AT TIME STEP 12, STRESS PERIOD  69
 UBDSV1 SAVING "FLOW FRONT FACE " ON UNIT  39 AT TIME STEP 12, STRESS PERIOD  69
 UBDSV1 SAVING "FLOW LOWER FACE " ON UNIT  39 AT TIME STEP 12, STRESS PERIOD  69
 UBDSV4 SAVING "           WELLS" ON UNIT  39 AT TIME STEP 12, STRESS PERIOD  69
 UBDSV3 SAVING "              ET" ON UNIT  39 AT TIME STEP 12, STRESS PERIOD  69
 UBDSV3 SAVING "        RECHARGE" ON UNIT  39 AT TIME STEP 12, STRESS PERIOD  69
1
  VOLUMETRIC BUDGET FOR ENTIRE MODEL AT END OF TIME STEP   12, STRESS PERIOD  69
  ------------------------------------------------------------------------------

     CUMULATIVE VOLUMES      L**3       RATES FOR THIS TIME STEP      L**3/T
     ------------------                 ------------------------

           IN:                                      IN:
           ---                                      ---
             STORAGE     =439299014656.0000               STORAGE     =     9724670.0000
       CONSTANT HEAD     = 47897919488.0000         CONSTANT HEAD     =     2548358.0000
               WELLS     = 30889338880.0000                 WELLS     =     1225642.0000
                  ET     =           0.0000                    ET     =           0.0000
            RECHARGE     =550444400640.0000              RECHARGE     =    36134860.0000

                TOTAL IN =       1.0685E+12                  TOTAL IN =    49633528.0000

          OUT:                                     OUT:
          ----                                     ----
             STORAGE     =122440925184.0000               STORAGE     =    10960655.0000
       CONSTANT HEAD     = 73569656832.0000         CONSTANT HEAD     =     1629760.3750
               WELLS     =848557309952.0000                 WELLS     =    36557988.0000
                  ET     = 23961653248.0000                    ET     =      485128.8750
            RECHARGE     =           0.0000              RECHARGE     =           0.0000

               TOTAL OUT =       1.0685E+12                 TOTAL OUT =    49633532.0000

                IN - OUT =     1114112.0000                  IN - OUT =          -4.0000

     PERCENT DISCREPANCY =           0.00         PERCENT DISCREPANCY =          -0.00






         TIME SUMMARY AT END OF TIME STEP   12 IN STRESS PERIOD   69
                    SECONDS     MINUTES      HOURS       DAYS        YEARS
                    -----------------------------------------------------------
   TIME STEP LENGTH 2.63520E+06  43920.      732.00      30.500     8.35044E-02
 STRESS PERIOD TIME 3.16224E+07 5.27040E+05  8784.0      366.00      1.0021    
         TOTAL TIME 2.17753E+09 3.62922E+07 6.04870E+05  25203.      69.002    
1
1
                            STRESS PERIOD NO.   70, LENGTH =   365.0000    
                            -----------------------------------------------

                              NUMBER OF TIME STEPS =    12

                               MULTIPLIER FOR DELT =     1.000

                            INITIAL TIME STEP SIZE =   30.41667    

   1401 WELLS

 REUSING SURF FROM LAST STRESS PERIOD

 REUSING EVTR FROM LAST STRESS PERIOD

 REUSING EXDP FROM LAST STRESS PERIOD



                           RECHARGE
 READING ON UNIT   16 WITH FORMAT: (15F5.0)            


     63 TIME-VARIANT SPECIFIED-HEAD CELLS
 
 SOLVING FOR HEAD 
                                                   Max.-Head-Change                        Max.-Flux-Residual
  Residual-Control   Outer-Iter.   Inner-Iter.     Column Row Layer    Max.-Head-Change    Column Row Layer    Max.-Flux-Residual            L2-New               L2-Old           Solver-Max-Delh
          0                 1          12            92   77     2      -0.7279126453E+02      32   60    1       0.3260381719E+06      0.1314579487E+07      0.1869503985E+01     -0.7279126453E+02
          0                 2          10            92   77     2       0.3184767704E+02      34   67    2      -0.4603675262E+05      0.1518970605E+06      0.1314579487E+07      0.3184767704E+02
          0                 3           7            92   77     2       0.1510964818E+01      34   67    3      -0.2311813835E+04      0.3609414760E+04      0.1518970605E+06      0.1510964818E+01
          0                 4           3            92   77     2       0.6526936139E-01      92   77    2       0.4112139776E+02      0.4364566802E+02      0.3609414760E+04      0.6526936139E-01
          0                 5           2            92   77     2       0.2847482396E-02      92   77    2       0.1794235532E+01      0.1955835934E+01      0.4364566802E+02      0.2847482396E-02

    ------------------------------------------------
       NWT REQUIRED            5 OUTER ITERATIONS 
       AND A TOTAL OF         34 INNER ITERATIONS.
    ------------------------------------------------

 NO OUTPUT CONTROL FOR STRESS PERIOD   70   TIME STEP    1
 
 SOLVING FOR HEAD 
                                                   Max.-Head-Change                        Max.-Flux-Residual
  Residual-Control   Outer-Iter.   Inner-Iter.     Column Row Layer    Max.-Head-Change    Column Row Layer    Max.-Flux-Residual            L2-New               L2-Old           Solver-Max-Delh
          0                 1          11            31   61     2       0.9454901775E+01      32   60    2       0.2931849467E+06      0.9642893455E+06      0.1955835934E+01      0.9454901775E+01
          0                 2          10            31   61     2      -0.8877550458E+00      44   32    1      -0.3220026470E+05      0.1058973367E+06      0.9642893455E+06     -0.8877550458E+00
          0                 3           7            35   68     3       0.4246055030E-01      35   68    3       0.1729015971E+04      0.2152125373E+04      0.1058973367E+06      0.4246055030E-01
          0                 4           5            35   68     2       0.4404558717E-02      35   68    3       0.1556006452E+03      0.1584805829E+03      0.2152125373E+04      0.4404558717E-02

    ------------------------------------------------
       NWT REQUIRED            4 OUTER ITERATIONS 
       AND A TOTAL OF         33 INNER ITERATIONS.
    ------------------------------------------------

 NO OUTPUT CONTROL FOR STRESS PERIOD   70   TIME STEP    2
 
 SOLVING FOR HEAD 
                                                   Max.-Head-Change                        Max.-Flux-Residual
  Residual-Control   Outer-Iter.   Inner-Iter.     Column Row Layer    Max.-Head-Change    Column Row Layer    Max.-Flux-Residual            L2-New               L2-Old           Solver-Max-Delh
          0                 1          11            31   61     2       0.7752691597E+01      31   61    2       0.2359319198E+06      0.8269247554E+06      0.1584805829E+03      0.7752691597E+01
          0                 2          10            31   61     2      -0.7197302185E+00      44   32    2       0.3449174252E+05      0.9192686866E+05      0.8269247554E+06     -0.7197302185E+00
          0                 3           7            35   68     3      -0.3096721270E-01      44   32    2      -0.3193994870E+04      0.3413441183E+04      0.9192686866E+05     -0.3096721270E-01
          0                 4           3            85   85     2      -0.2590931592E-03      62   46    2      -0.7369154692E+00      0.1545196894E+01      0.3413441183E+04     -0.2590931592E-03

    ------------------------------------------------
       NWT REQUIRED            4 OUTER ITERATIONS 
       AND A TOTAL OF         31 INNER ITERATIONS.
    ------------------------------------------------

 NO OUTPUT CONTROL FOR STRESS PERIOD   70   TIME STEP    3
 
 SOLVING FOR HEAD 
                                                   Max.-Head-Change                        Max.-Flux-Residual
  Residual-Control   Outer-Iter.   Inner-Iter.     Column Row Layer    Max.-Head-Change    Column Row Layer    Max.-Flux-Residual            L2-New               L2-Old           Solver-Max-Delh
          0                 1          11            31   61     2       0.6423356346E+01      31   61    2       0.1936956489E+06      0.7434710026E+06      0.1545196894E+01      0.6423356346E+01
          0                 2          10            74   66     1      -0.1193428816E+01      31   61    2      -0.1998507388E+05      0.7902638717E+05      0.7434710026E+06     -0.1193428816E+01
          0                 3           6            74   66     1       0.9101925935E-01      74   66    1       0.1471551899E+03      0.1609967897E+03      0.7902638717E+05      0.9101925935E-01
          0                 4           3            74   66     1       0.1327010996E-02      74   66    1       0.2128057905E+01      0.2185453154E+01      0.1609967897E+03      0.1327010996E-02

    ------------------------------------------------
       NWT REQUIRED            4 OUTER ITERATIONS 
       AND A TOTAL OF         30 INNER ITERATIONS.
    ------------------------------------------------

 NO OUTPUT CONTROL FOR STRESS PERIOD   70   TIME STEP    4
 
 SOLVING FOR HEAD 
                                                   Max.-Head-Change                        Max.-Flux-Residual
  Residual-Control   Outer-Iter.   Inner-Iter.     Column Row Layer    Max.-Head-Change    Column Row Layer    Max.-Flux-Residual            L2-New               L2-Old           Solver-Max-Delh
          0                 1          11            31   61     2       0.5387269862E+01      31   61    2       0.1606281597E+06      0.6857030620E+06      0.2185453154E+01      0.5387269862E+01
          0                 2          10            31   61     2      -0.4932213285E+00      43   32    1      -0.2440774022E+05      0.7437471837E+05      0.6857030620E+06     -0.4932213285E+00
          0                 3           6            73   15     2       0.3156525423E-01      73   15    2       0.2485588156E+03      0.3369638533E+03      0.7437471837E+05      0.3156525423E-01
          0                 4           2            73   15     1       0.3774303627E-03      73   15    1       0.8194007371E+00      0.1248187028E+01      0.3369638533E+03      0.3774303627E-03

    ------------------------------------------------
       NWT REQUIRED            4 OUTER ITERATIONS 
       AND A TOTAL OF         29 INNER ITERATIONS.
    ------------------------------------------------

 NO OUTPUT CONTROL FOR STRESS PERIOD   70   TIME STEP    5
 
 SOLVING FOR HEAD 
                                                   Max.-Head-Change                        Max.-Flux-Residual
  Residual-Control   Outer-Iter.   Inner-Iter.     Column Row Layer    Max.-Head-Change    Column Row Layer    Max.-Flux-Residual            L2-New               L2-Old           Solver-Max-Delh
          0                 1          11            31   61     2       0.4576258135E+01      31   61    2       0.1348016743E+06      0.6436231235E+06      0.1248187028E+01      0.4576258135E+01
          0                 2          10            31   61     2      -0.4169043502E+00      31   61    2      -0.1370865179E+05      0.6724689324E+05      0.6436231235E+06     -0.4169043502E+00
          0                 3           6            59  118     1       0.1537672893E-01      27   33    2       0.4499268320E+03      0.5456421080E+03      0.6724689324E+05      0.1537672893E-01
          0                 4           5            27   33     2       0.4907355631E-03      27   33    2       0.4049275792E+02      0.4350059061E+02      0.5456421080E+03      0.4907355631E-03

    ------------------------------------------------
       NWT REQUIRED            4 OUTER ITERATIONS 
       AND A TOTAL OF         32 INNER ITERATIONS.
    ------------------------------------------------

 NO OUTPUT CONTROL FOR STRESS PERIOD   70   TIME STEP    6
 
 SOLVING FOR HEAD 
                                                   Max.-Head-Change                        Max.-Flux-Residual
  Residual-Control   Outer-Iter.   Inner-Iter.     Column Row Layer    Max.-Head-Change    Column Row Layer    Max.-Flux-Residual            L2-New               L2-Old           Solver-Max-Delh
          0                 1          11            31   61     2       0.3937829620E+01      31   61    2       0.1145696588E+06      0.6125486300E+06      0.4350059061E+02      0.3937829620E+01
          0                 2          10            73   11     2      -0.1140309488E+01      31   61    2      -0.1159909903E+05      0.6304768010E+05      0.6125486300E+06     -0.1140309488E+01
          0                 3           6            73   11     2       0.6806028689E-01      24   28    2       0.6579143290E+03      0.9286616847E+03      0.6304768010E+05      0.6806028689E-01
          0                 4           5            73   11     2       0.2127663055E-02      24   28    2       0.5920955898E+02      0.5926827130E+02      0.9286616847E+03      0.2127663055E-02

    ------------------------------------------------
       NWT REQUIRED            4 OUTER ITERATIONS 
       AND A TOTAL OF         32 INNER ITERATIONS.
    ------------------------------------------------

 NO OUTPUT CONTROL FOR STRESS PERIOD   70   TIME STEP    7
 
 SOLVING FOR HEAD 
                                                   Max.-Head-Change                        Max.-Flux-Residual
  Residual-Control   Outer-Iter.   Inner-Iter.     Column Row Layer    Max.-Head-Change    Column Row Layer    Max.-Flux-Residual            L2-New               L2-Old           Solver-Max-Delh
          0                 1          11            88   67     1      -0.1954066368E+02      31   61    2       0.9862058915E+05      0.5875108998E+06      0.5926827130E+02     -0.1954066368E+02
          0                 2          10            88   67     1       0.1155002849E+01      31   61    2      -0.9951709170E+04      0.5978138638E+05      0.5875108998E+06      0.1155002849E+01
          0                 3           6            88   67     1       0.3375677012E-01      62   97    1       0.8205321597E+03      0.9885354955E+03      0.5978138638E+05      0.3375677012E-01
          0                 4           2            88   67     1       0.9915863481E-03      88   67    1       0.1322176013E+01      0.1821207313E+01      0.9885354955E+03      0.9915863481E-03

    ------------------------------------------------
       NWT REQUIRED            4 OUTER ITERATIONS 
       AND A TOTAL OF         29 INNER ITERATIONS.
    ------------------------------------------------

 NO OUTPUT CONTROL FOR STRESS PERIOD   70   TIME STEP    8
 
 SOLVING FOR HEAD 
                                                   Max.-Head-Change                        Max.-Flux-Residual
  Residual-Control   Outer-Iter.   Inner-Iter.     Column Row Layer    Max.-Head-Change    Column Row Layer    Max.-Flux-Residual            L2-New               L2-Old           Solver-Max-Delh
          0                 1          11            31   61     2       0.3023534189E+01      31   61    2       0.8593936444E+05      0.5675750311E+06      0.1821207313E+01      0.3023534189E+01
          0                 2          10            65    7     2      -0.3903319092E+01      31   61    2      -0.8651191988E+04      0.5787979479E+05      0.5675750311E+06     -0.3903319092E+01
          0                 3           6            69   47     1      -0.2052965925E+00      69   47    1      -0.1044704538E+05      0.1045355630E+05      0.5787979479E+05     -0.2052965925E+00
          0                 4           3            69   47     1      -0.1851987897E-01      69   47    1      -0.9419851435E+03      0.9423052869E+03      0.1045355630E+05     -0.1851987897E-01
          0                 5           2            69   47     1      -0.1665455932E-02      69   47    1      -0.8469877321E+02      0.8472409074E+02      0.9423052869E+03     -0.1665455932E-02

    ------------------------------------------------
       NWT REQUIRED            5 OUTER ITERATIONS 
       AND A TOTAL OF         32 INNER ITERATIONS.
    ------------------------------------------------

 NO OUTPUT CONTROL FOR STRESS PERIOD   70   TIME STEP    9
 
 SOLVING FOR HEAD 
                                                   Max.-Head-Change                        Max.-Flux-Residual
  Residual-Control   Outer-Iter.   Inner-Iter.     Column Row Layer    Max.-Head-Change    Column Row Layer    Max.-Flux-Residual            L2-New               L2-Old           Solver-Max-Delh
          0                 1          11            65    7     2      -0.8018997645E+01      31   61    2       0.7575766911E+05      0.5505974919E+06      0.8472409074E+02     -0.8018997645E+01
          0                 2          10            69   47     1      -0.5376206288E+01      69   47    1      -0.2950889030E+05      0.6296842095E+05      0.5505974919E+06     -0.5376206288E+01
          0                 3           6            69   47     1       0.4512642930E+00      69   47    1       0.2726186789E+04      0.2795258481E+04      0.6296842095E+05      0.4512642930E+00
          0                 4           2            69   47     1       0.3035192349E-02      69   47    1       0.1806044566E+02      0.1844966722E+02      0.2795258481E+04      0.3035192349E-02

    ------------------------------------------------
       NWT REQUIRED            4 OUTER ITERATIONS 
       AND A TOTAL OF         29 INNER ITERATIONS.
    ------------------------------------------------

 NO OUTPUT CONTROL FOR STRESS PERIOD   70   TIME STEP   10
 
 SOLVING FOR HEAD 
                                                   Max.-Head-Change                        Max.-Flux-Residual
  Residual-Control   Outer-Iter.   Inner-Iter.     Column Row Layer    Max.-Head-Change    Column Row Layer    Max.-Flux-Residual            L2-New               L2-Old           Solver-Max-Delh
          0                 1          11            31   61     2       0.2422947109E+01      31   61    2       0.6749781460E+05      0.5371715325E+06      0.1844966722E+02      0.2422947109E+01
          0                 2          10            78   88     1      -0.3613604513E+00      44   31    1      -0.1357739327E+05      0.5610343468E+05      0.5371715325E+06     -0.3613604513E+00
          0                 3           6            78   88     1       0.2752349610E-01      61   85    2      -0.5432261876E+03      0.6789148030E+03      0.5610343468E+05      0.2752349610E-01
          0                 4           2            78   88     1       0.4056877910E-03      78   88    1       0.7652514335E+00      0.1006861559E+01      0.6789148030E+03      0.4056877910E-03

    ------------------------------------------------
       NWT REQUIRED            4 OUTER ITERATIONS 
       AND A TOTAL OF         29 INNER ITERATIONS.
    ------------------------------------------------

 NO OUTPUT CONTROL FOR STRESS PERIOD   70   TIME STEP   11
 
 SOLVING FOR HEAD 
                                                   Max.-Head-Change                        Max.-Flux-Residual
  Residual-Control   Outer-Iter.   Inner-Iter.     Column Row Layer    Max.-Head-Change    Column Row Layer    Max.-Flux-Residual            L2-New               L2-Old           Solver-Max-Delh
          0                 1          11            31   61     2       0.2199096718E+01      31   61    2       0.6072636597E+05      0.5245104338E+06      0.1006861559E+01      0.2199096718E+01
          0                 2          10            44   72     2      -0.3767889313E+00      89   65    2       0.1061437081E+05      0.5373599937E+05      0.5245104338E+06     -0.3767889313E+00
          0                 3           6            66    4     2      -0.2393962831E+00      66    4    2      -0.6749845562E+04      0.6764690852E+04      0.5373599937E+05     -0.2393962831E+00
          0                 4           4            66    4     2      -0.2157008144E-01      66    4    2      -0.6080058216E+03      0.6084330921E+03      0.6764690852E+04     -0.2157008144E-01
          0                 5           3            66    4     2      -0.1939545126E-02      66    4    2      -0.5466405441E+02      0.5470210431E+02      0.6084330921E+03     -0.1939545126E-02

    ------------------------------------------------
       NWT REQUIRED            5 OUTER ITERATIONS 
       AND A TOTAL OF         34 INNER ITERATIONS.
    ------------------------------------------------

 OUTPUT CONTROL FOR STRESS PERIOD   70   TIME STEP   12
    SAVE BUDGET
 UBDSV1 SAVING "         STORAGE" ON UNIT  39 AT TIME STEP 12, STRESS PERIOD  70
 UBDSV2 SAVING "   CONSTANT HEAD" ON UNIT  39 AT TIME STEP 12, STRESS PERIOD  70
 UBDSV1 SAVING "FLOW RIGHT FACE " ON UNIT  39 AT TIME STEP 12, STRESS PERIOD  70
 UBDSV1 SAVING "FLOW FRONT FACE " ON UNIT  39 AT TIME STEP 12, STRESS PERIOD  70
 UBDSV1 SAVING "FLOW LOWER FACE " ON UNIT  39 AT TIME STEP 12, STRESS PERIOD  70
 UBDSV4 SAVING "           WELLS" ON UNIT  39 AT TIME STEP 12, STRESS PERIOD  70
 UBDSV3 SAVING "              ET" ON UNIT  39 AT TIME STEP 12, STRESS PERIOD  70
 UBDSV3 SAVING "        RECHARGE" ON UNIT  39 AT TIME STEP 12, STRESS PERIOD  70
1
  VOLUMETRIC BUDGET FOR ENTIRE MODEL AT END OF TIME STEP   12, STRESS PERIOD  70
  ------------------------------------------------------------------------------

     CUMULATIVE VOLUMES      L**3       RATES FOR THIS TIME STEP      L**3/T
     ------------------                 ------------------------

           IN:                                      IN:
           ---                                      ---
             STORAGE     =444073213952.0000               STORAGE     =    12265384.0000
       CONSTANT HEAD     = 48780992512.0000         CONSTANT HEAD     =     2403231.0000
               WELLS     = 31336695808.0000                 WELLS     =     1225642.0000
                  ET     =           0.0000                    ET     =           0.0000
            RECHARGE     =562203131904.0000              RECHARGE     =    32214646.0000

                TOTAL IN =       1.0864E+12                  TOTAL IN =    48108904.0000

          OUT:                                     OUT:
          ----                                     ----
             STORAGE     =127411019776.0000               STORAGE     =    12715240.0000
       CONSTANT HEAD     = 74331840512.0000         CONSTANT HEAD     =     2266357.2500
               WELLS     =860570845184.0000                 WELLS     =    32900524.0000
                  ET     = 24078954496.0000                    ET     =      226788.1406
            RECHARGE     =           0.0000              RECHARGE     =           0.0000

               TOTAL OUT =       1.0864E+12                 TOTAL OUT =    48108908.0000

                IN - OUT =     1376256.0000                  IN - OUT =          -4.0000

     PERCENT DISCREPANCY =           0.00         PERCENT DISCREPANCY =          -0.00






         TIME SUMMARY AT END OF TIME STEP   12 IN STRESS PERIOD   70
                    SECONDS     MINUTES      HOURS       DAYS        YEARS
                    -----------------------------------------------------------
   TIME STEP LENGTH 2.62800E+06  43800.      730.00      30.417     8.32763E-02
 STRESS PERIOD TIME 3.15360E+07 5.25600E+05  8760.0      365.00     0.99932    
         TOTAL TIME 2.20907E+09 3.68178E+07 6.13630E+05  25568.      70.001    
1
1
                            STRESS PERIOD NO.   71, LENGTH =   365.0000    
                            -----------------------------------------------

                              NUMBER OF TIME STEPS =    12

                               MULTIPLIER FOR DELT =     1.000

                            INITIAL TIME STEP SIZE =   30.41667    

   1471 WELLS

 REUSING SURF FROM LAST STRESS PERIOD

 REUSING EVTR FROM LAST STRESS PERIOD

 REUSING EXDP FROM LAST STRESS PERIOD



                           RECHARGE
 READING ON UNIT   16 WITH FORMAT: (15F5.0)            


     63 TIME-VARIANT SPECIFIED-HEAD CELLS
 
 SOLVING FOR HEAD 
                                                   Max.-Head-Change                        Max.-Flux-Residual
  Residual-Control   Outer-Iter.   Inner-Iter.     Column Row Layer    Max.-Head-Change    Column Row Layer    Max.-Flux-Residual            L2-New               L2-Old           Solver-Max-Delh
          0                 1          12            32   61     1       0.3960795667E+02      29   52    2      -0.8985739518E+06      0.2413091396E+07      0.5470210431E+02      0.3960795667E+02
          0                 2          11            32   61     1      -0.2393369941E+02      32   61    1      -0.1053414523E+07      0.1248536078E+07      0.2413091396E+07     -0.2393369941E+02
          0                 3           8            32   61     1      -0.6227115738E+00      32   61    1      -0.2643447997E+05      0.3135823259E+05      0.1248536078E+07     -0.6227115738E+00
          0                 4           5            33   61     1       0.4172181819E-01      32   62    1       0.6077706099E+03      0.1171741304E+04      0.3135823259E+05      0.4172181819E-01
          0                 5           4            33   61     1       0.3835645881E-02      32   62    1       0.5579942397E+02      0.1065502492E+03      0.1171741304E+04      0.3835645881E-02

    ------------------------------------------------
       NWT REQUIRED            5 OUTER ITERATIONS 
       AND A TOTAL OF         40 INNER ITERATIONS.
    ------------------------------------------------

 NO OUTPUT CONTROL FOR STRESS PERIOD   71   TIME STEP    1

 INTERPOLATION FOR HEAD OBS#  640, ID 3014-71-54   CHANGED BECAUSE AT LEAST ONE
 NEIGHBORING CELL REQUIRED FOR INTERPOLATION IS DRY OR INACTIVE (OBS2BAS7SE)

 INTERPOLATION FOR HEAD OBS# 1336, ID 2852-71-56   CHANGED BECAUSE AT LEAST ONE
 NEIGHBORING CELL REQUIRED FOR INTERPOLATION IS DRY OR INACTIVE (OBS2BAS7SE)

 INTERPOLATION FOR HEAD OBS# 2184, ID 2355-71-47   CHANGED BECAUSE AT LEAST ONE
 NEIGHBORING CELL REQUIRED FOR INTERPOLATION IS DRY OR INACTIVE (OBS2BAS7SE)

 INTERPOLATION FOR HEAD OBS# 3197, ID 2443-71-42   CHANGED BECAUSE AT LEAST ONE
 NEIGHBORING CELL REQUIRED FOR INTERPOLATION IS DRY OR INACTIVE (OBS2BAS7SE)

 INTERPOLATION FOR HEAD OBS# 3609, ID 1370-71-50   CHANGED BECAUSE AT LEAST ONE
 NEIGHBORING CELL REQUIRED FOR INTERPOLATION IS DRY OR INACTIVE (OBS2BAS7SE)

 INTERPOLATION FOR HEAD OBS# 7733, ID 92-71-40     CHANGED BECAUSE AT LEAST ONE
 NEIGHBORING CELL REQUIRED FOR INTERPOLATION IS DRY OR INACTIVE (OBS2BAS7SE)
 
 SOLVING FOR HEAD 
                                                   Max.-Head-Change                        Max.-Flux-Residual
  Residual-Control   Outer-Iter.   Inner-Iter.     Column Row Layer    Max.-Head-Change    Column Row Layer    Max.-Flux-Residual            L2-New               L2-Old           Solver-Max-Delh
          0                 1          11            29   52     2      -0.1148862367E+02      29   52    2      -0.4135860995E+06      0.1243902410E+07      0.1065502492E+03     -0.1148862367E+02
          0                 2          10            29   52     2       0.9459643063E+00      29   52    2       0.3740180444E+05      0.1223873946E+06      0.1243902410E+07      0.9459643063E+00
          0                 3           6            33   68     2      -0.2482481691E-02      31   34    2      -0.1046835829E+03      0.1585238875E+03      0.1223873946E+06     -0.2482481691E-02

    ------------------------------------------------
       NWT REQUIRED            3 OUTER ITERATIONS 
       AND A TOTAL OF         27 INNER ITERATIONS.
    ------------------------------------------------

 NO OUTPUT CONTROL FOR STRESS PERIOD   71   TIME STEP    2

 INTERPOLATION FOR HEAD OBS# 1406, ID 2827-71-61   CHANGED BECAUSE AT LEAST ONE
 NEIGHBORING CELL REQUIRED FOR INTERPOLATION IS DRY OR INACTIVE (OBS2BAS7SE)

 INTERPOLATION FOR HEAD OBS# 3698, ID 1479-71-70   CHANGED BECAUSE AT LEAST ONE
 NEIGHBORING CELL REQUIRED FOR INTERPOLATION IS DRY OR INACTIVE (OBS2BAS7SE)

 INTERPOLATION FOR HEAD OBS# 3711, ID 1471-71-70   CHANGED BECAUSE AT LEAST ONE
 NEIGHBORING CELL REQUIRED FOR INTERPOLATION IS DRY OR INACTIVE (OBS2BAS7SE)

 INTERPOLATION FOR HEAD OBS# 6248, ID 1067-71-63   CHANGED BECAUSE AT LEAST ONE
 NEIGHBORING CELL REQUIRED FOR INTERPOLATION IS DRY OR INACTIVE (OBS2BAS7SE)

 INTERPOLATION FOR HEAD OBS# 6249, ID 1066-71-63   CHANGED BECAUSE AT LEAST ONE
 NEIGHBORING CELL REQUIRED FOR INTERPOLATION IS DRY OR INACTIVE (OBS2BAS7SE)

 INTERPOLATION FOR HEAD OBS# 7378, ID 425-71-61    CHANGED BECAUSE AT LEAST ONE
 NEIGHBORING CELL REQUIRED FOR INTERPOLATION IS DRY OR INACTIVE (OBS2BAS7SE)
 
 SOLVING FOR HEAD 
                                                   Max.-Head-Change                        Max.-Flux-Residual
  Residual-Control   Outer-Iter.   Inner-Iter.     Column Row Layer    Max.-Head-Change    Column Row Layer    Max.-Flux-Residual            L2-New               L2-Old           Solver-Max-Delh
          0                 1          11            32   61     1       0.7827981103E+01      29   52    2      -0.2418691500E+06      0.9828015424E+06      0.1585238875E+03      0.7827981103E+01
          0                 2          10            32   61     1      -0.7310783703E+00      32   61    1      -0.2316876975E+05      0.9941631882E+05      0.9828015424E+06     -0.7310783703E+00
          0                 3           6            23   49     3      -0.5432037408E-02      23   25    2      -0.5372114175E+03      0.6761885583E+03      0.9941631882E+05     -0.5432037408E-02

    ------------------------------------------------
       NWT REQUIRED            3 OUTER ITERATIONS 
       AND A TOTAL OF         27 INNER ITERATIONS.
    ------------------------------------------------

 NO OUTPUT CONTROL FOR STRESS PERIOD   71   TIME STEP    3
 
 SOLVING FOR HEAD 
                                                   Max.-Head-Change                        Max.-Flux-Residual
  Residual-Control   Outer-Iter.   Inner-Iter.     Column Row Layer    Max.-Head-Change    Column Row Layer    Max.-Flux-Residual            L2-New               L2-Old           Solver-Max-Delh
          0                 1          11            32   61     1       0.6892611881E+01      32   61    1       0.1951721557E+06      0.8561172390E+06      0.6761885583E+03      0.6892611881E+01
          0                 2          10            31   62     1      -0.2174612147E+01      31   62    1      -0.8883319506E+05      0.1243219049E+06      0.8561172390E+06     -0.2174612147E+01
          0                 3           6            90   67     2      -0.2257178004E-01      32   67    3      -0.3206881231E+03      0.5419370310E+03      0.1243219049E+06     -0.2257178004E-01
          0                 4           3            85   85     2      -0.2634035969E-03      30   62    1       0.4311527930E+01      0.7401012379E+01      0.5419370310E+03     -0.2634035969E-03

    ------------------------------------------------
       NWT REQUIRED            4 OUTER ITERATIONS 
       AND A TOTAL OF         30 INNER ITERATIONS.
    ------------------------------------------------

 NO OUTPUT CONTROL FOR STRESS PERIOD   71   TIME STEP    4
 
 SOLVING FOR HEAD 
                                                   Max.-Head-Change                        Max.-Flux-Residual
  Residual-Control   Outer-Iter.   Inner-Iter.     Column Row Layer    Max.-Head-Change    Column Row Layer    Max.-Flux-Residual            L2-New               L2-Old           Solver-Max-Delh
          0                 1          11            32   61     1       0.6078725006E+01      32   61    1       0.1719047476E+06      0.7770865998E+06      0.7401012379E+01      0.6078725006E+01
          0                 2          10            32   61     1      -0.5613259656E+00      32   61    1      -0.1760212320E+05      0.7841123718E+05      0.7770865998E+06     -0.5613259656E+00
          0                 3           6            65   29     2       0.3610558593E-01      44   31    1       0.4349973943E+03      0.6835278933E+03      0.7841123718E+05      0.3610558593E-01
          0                 4           3            85   85     2      -0.2602662020E-03      28   63    2       0.1620233434E+01      0.2132038319E+01      0.6835278933E+03     -0.2602662020E-03

    ------------------------------------------------
       NWT REQUIRED            4 OUTER ITERATIONS 
       AND A TOTAL OF         30 INNER ITERATIONS.
    ------------------------------------------------

 NO OUTPUT CONTROL FOR STRESS PERIOD   71   TIME STEP    5
 
 SOLVING FOR HEAD 
                                                   Max.-Head-Change                        Max.-Flux-Residual
  Residual-Control   Outer-Iter.   Inner-Iter.     Column Row Layer    Max.-Head-Change    Column Row Layer    Max.-Flux-Residual            L2-New               L2-Old           Solver-Max-Delh
          0                 1          11            32   61     1       0.5381506088E+01      32   61    1       0.1517509089E+06      0.7228368067E+06      0.2132038319E+01      0.5381506088E+01
          0                 2          10            32   62     1      -0.2266591145E+01      32   62    1      -0.9780649268E+05      0.1465759597E+06      0.7228368067E+06     -0.2266591145E+01
          0                 3           7            32   61     2      -0.2130031096E+00      32   61    2      -0.7636371425E+04      0.8159426144E+04      0.1465759597E+06     -0.2130031096E+00
          0                 4           3            71   19     2       0.7177055409E-03      31   61    2       0.3219873799E+02      0.3324611337E+02      0.8159426144E+04      0.7177055409E-03

    ------------------------------------------------
       NWT REQUIRED            4 OUTER ITERATIONS 
       AND A TOTAL OF         31 INNER ITERATIONS.
    ------------------------------------------------

 NO OUTPUT CONTROL FOR STRESS PERIOD   71   TIME STEP    6
 
 SOLVING FOR HEAD 
                                                   Max.-Head-Change                        Max.-Flux-Residual
  Residual-Control   Outer-Iter.   Inner-Iter.     Column Row Layer    Max.-Head-Change    Column Row Layer    Max.-Flux-Residual            L2-New               L2-Old           Solver-Max-Delh
          0                 1          11            32   61     2       0.6131130607E+01      32   61    1       0.1581952717E+06      0.6830857373E+06      0.3324611337E+02      0.6131130607E+01
          0                 2          10            32   61     2      -0.5636595812E+00      32   61    1      -0.1653321024E+05      0.6855332274E+05      0.6830857373E+06     -0.5636595812E+00
          0                 3           6            67   52     2      -0.4269089707E-02      67   52    2      -0.1656466231E+03      0.1931127800E+03      0.6855332274E+05     -0.4269089707E-02

    ------------------------------------------------
       NWT REQUIRED            3 OUTER ITERATIONS 
       AND A TOTAL OF         27 INNER ITERATIONS.
    ------------------------------------------------

 NO OUTPUT CONTROL FOR STRESS PERIOD   71   TIME STEP    7
 
 SOLVING FOR HEAD 
                                                   Max.-Head-Change                        Max.-Flux-Residual
  Residual-Control   Outer-Iter.   Inner-Iter.     Column Row Layer    Max.-Head-Change    Column Row Layer    Max.-Flux-Residual            L2-New               L2-Old           Solver-Max-Delh
          0                 1          11            32   61     1       0.4894458475E+01      32   61    1       0.1471029649E+06      0.6556845861E+06      0.1931127800E+03      0.4894458475E+01
          0                 2          10            32   61     1      -0.4518657334E+00      32   61    1      -0.1507839236E+05      0.6603628834E+05      0.6556845861E+06     -0.4518657334E+00
          0                 3           5            85   85     2      -0.1705700442E-02      58  118    1       0.1335887455E+02      0.5740635287E+02      0.6603628834E+05     -0.1705700442E-02

    ------------------------------------------------
       NWT REQUIRED            3 OUTER ITERATIONS 
       AND A TOTAL OF         26 INNER ITERATIONS.
    ------------------------------------------------

 NO OUTPUT CONTROL FOR STRESS PERIOD   71   TIME STEP    8
 
 SOLVING FOR HEAD 
                                                   Max.-Head-Change                        Max.-Flux-Residual
  Residual-Control   Outer-Iter.   Inner-Iter.     Column Row Layer    Max.-Head-Change    Column Row Layer    Max.-Flux-Residual            L2-New               L2-Old           Solver-Max-Delh
          0                 1          11            32   61     1       0.4150421841E+01      32   61    1       0.1222051288E+06      0.6291283117E+06      0.5740635287E+02      0.4150421841E+01
          0                 2          10            32   61     1      -0.3807715020E+00      26   59    2      -0.1804221393E+05      0.6648748495E+05      0.6291283117E+06     -0.3807715020E+00
          0                 3           6            40   62     3       0.2329361433E-01      40   62    3       0.7350038722E+03      0.7387090155E+03      0.6648748495E+05      0.2329361433E-01
          0                 4           4            40   62     3       0.2096496413E-02      40   62    3       0.6614470497E+02      0.6619629034E+02      0.7387090155E+03      0.2096496413E-02

    ------------------------------------------------
       NWT REQUIRED            4 OUTER ITERATIONS 
       AND A TOTAL OF         31 INNER ITERATIONS.
    ------------------------------------------------

 NO OUTPUT CONTROL FOR STRESS PERIOD   71   TIME STEP    9
 
 SOLVING FOR HEAD 
                                                   Max.-Head-Change                        Max.-Flux-Residual
  Residual-Control   Outer-Iter.   Inner-Iter.     Column Row Layer    Max.-Head-Change    Column Row Layer    Max.-Flux-Residual            L2-New               L2-Old           Solver-Max-Delh
          0                 1          11            33   61     1       0.3713397481E+01      32   61    1       0.1036979897E+06      0.6076473462E+06      0.6619629034E+02      0.3713397481E+01
          0                 2          10            31   61     2       0.9108628700E+00      31   61    2       0.3330437967E+05      0.7055369003E+05      0.6076473462E+06      0.9108628700E+00
          0                 3           7            31   61     2      -0.8287508004E-01      31   61    2      -0.3040891632E+04      0.3335821510E+04      0.7055369003E+05     -0.8287508004E-01
          0                 4           2            85   85     2      -0.2526875677E-03      84   52    1       0.2602346484E+00      0.3727946126E+00      0.3335821510E+04     -0.2526875677E-03

    ------------------------------------------------
       NWT REQUIRED            4 OUTER ITERATIONS 
       AND A TOTAL OF         30 INNER ITERATIONS.
    ------------------------------------------------

 NO OUTPUT CONTROL FOR STRESS PERIOD   71   TIME STEP   10
 
 SOLVING FOR HEAD 
                                                   Max.-Head-Change                        Max.-Flux-Residual
  Residual-Control   Outer-Iter.   Inner-Iter.     Column Row Layer    Max.-Head-Change    Column Row Layer    Max.-Flux-Residual            L2-New               L2-Old           Solver-Max-Delh
          0                 1          11            31   61     2       0.4634331489E+01      32   61    1       0.9174970747E+05      0.5906101984E+06      0.3727946126E+00      0.4634331489E+01
          0                 2          10            31   61     2      -0.4221244757E+00      31   61    1      -0.9224780499E+04      0.5914752597E+05      0.5906101984E+06     -0.4221244757E+00
          0                 3           6            29   65     2      -0.3678832089E-01      29   65    2      -0.8069938207E+02      0.1237516567E+03      0.5914752597E+05     -0.3678832089E-01
          0                 4           3            29   65     2      -0.4643141930E-03      29   65    2      -0.1018969513E+01      0.1041280382E+01      0.1237516567E+03     -0.4643141930E-03

    ------------------------------------------------
       NWT REQUIRED            4 OUTER ITERATIONS 
       AND A TOTAL OF         30 INNER ITERATIONS.
    ------------------------------------------------

 NO OUTPUT CONTROL FOR STRESS PERIOD   71   TIME STEP   11

 INTERPOLATION FOR HEAD OBS# 2185, ID 2355-71-350  CHANGED BECAUSE AT LEAST ONE
 NEIGHBORING CELL REQUIRED FOR INTERPOLATION IS DRY OR INACTIVE (OBS2BAS7SE)

 INTERPOLATION FOR HEAD OBS# 3610, ID 1370-71-365  CHANGED BECAUSE AT LEAST ONE
 NEIGHBORING CELL REQUIRED FOR INTERPOLATION IS DRY OR INACTIVE (OBS2BAS7SE)

 INTERPOLATION FOR HEAD OBS# 3699, ID 1479-71-365  CHANGED BECAUSE AT LEAST ONE
 NEIGHBORING CELL REQUIRED FOR INTERPOLATION IS DRY OR INACTIVE (OBS2BAS7SE)

 INTERPOLATION FOR HEAD OBS# 3712, ID 1471-71-365  CHANGED BECAUSE AT LEAST ONE
 NEIGHBORING CELL REQUIRED FOR INTERPOLATION IS DRY OR INACTIVE (OBS2BAS7SE)

 INTERPOLATION FOR HEAD OBS# 3772, ID 1405-71-365  CHANGED BECAUSE AT LEAST ONE
 NEIGHBORING CELL REQUIRED FOR INTERPOLATION IS DRY OR INACTIVE (OBS2BAS7SE)

 INTERPOLATION FOR HEAD OBS# 5429, ID 846-71-365   CHANGED BECAUSE AT LEAST ONE
 NEIGHBORING CELL REQUIRED FOR INTERPOLATION IS DRY OR INACTIVE (OBS2BAS7SE)

 INTERPOLATION FOR HEAD OBS# 7376, ID 451-71-336   CHANGED BECAUSE AT LEAST ONE
 NEIGHBORING CELL REQUIRED FOR INTERPOLATION IS DRY OR INACTIVE (OBS2BAS7SE)
 
 SOLVING FOR HEAD 
                                                   Max.-Head-Change                        Max.-Flux-Residual
  Residual-Control   Outer-Iter.   Inner-Iter.     Column Row Layer    Max.-Head-Change    Column Row Layer    Max.-Flux-Residual            L2-New               L2-Old           Solver-Max-Delh
          0                 1          11            31   61     1       0.3312164930E+01      31   61    1       0.9568649307E+05      0.5790279922E+06      0.1041280382E+01      0.3312164930E+01
          0                 2          10            31   60     1      -0.1737573624E+01      31   60    1      -0.7709869958E+05      0.9970084072E+05      0.5790279922E+06     -0.1737573624E+01
          0                 3           6            27   62     1      -0.3681504479E-01      32   70    3      -0.3484872472E+03      0.5310942026E+03      0.9970084072E+05     -0.3681504479E-01
          0                 4           3            85   85     2      -0.2511067904E-03      31   59    1       0.3543842219E+01      0.5321827931E+01      0.5310942026E+03     -0.2511067904E-03

    ------------------------------------------------
       NWT REQUIRED            4 OUTER ITERATIONS 
       AND A TOTAL OF         30 INNER ITERATIONS.
    ------------------------------------------------

 OUTPUT CONTROL FOR STRESS PERIOD   71   TIME STEP   12
    SAVE BUDGET
    SAVE HEAD FOR LAYERS:   1  2  3
 UBDSV1 SAVING "         STORAGE" ON UNIT  39 AT TIME STEP 12, STRESS PERIOD  71
 UBDSV2 SAVING "   CONSTANT HEAD" ON UNIT  39 AT TIME STEP 12, STRESS PERIOD  71
 UBDSV1 SAVING "FLOW RIGHT FACE " ON UNIT  39 AT TIME STEP 12, STRESS PERIOD  71
 UBDSV1 SAVING "FLOW FRONT FACE " ON UNIT  39 AT TIME STEP 12, STRESS PERIOD  71
 UBDSV1 SAVING "FLOW LOWER FACE " ON UNIT  39 AT TIME STEP 12, STRESS PERIOD  71
 UBDSV4 SAVING "           WELLS" ON UNIT  39 AT TIME STEP 12, STRESS PERIOD  71
 UBDSV3 SAVING "              ET" ON UNIT  39 AT TIME STEP 12, STRESS PERIOD  71
 UBDSV3 SAVING "        RECHARGE" ON UNIT  39 AT TIME STEP 12, STRESS PERIOD  71

 HEAD WILL BE SAVED ON UNIT   31 AT END OF TIME STEP   12, STRESS PERIOD   71
1
  VOLUMETRIC BUDGET FOR ENTIRE MODEL AT END OF TIME STEP   12, STRESS PERIOD  71
  ------------------------------------------------------------------------------

     CUMULATIVE VOLUMES      L**3       RATES FOR THIS TIME STEP      L**3/T
     ------------------                 ------------------------

           IN:                                      IN:
           ---                                      ---
             STORAGE     =447510937600.0000               STORAGE     =     7854666.5000
       CONSTANT HEAD     = 49716318208.0000         CONSTANT HEAD     =     2612157.0000
               WELLS     = 31771863040.0000                 WELLS     =     1192222.0000
                  ET     =           0.0000                    ET     =           0.0000
            RECHARGE     =576598769664.0000              RECHARGE     =    39439160.0000

                TOTAL IN =       1.1056E+12                  TOTAL IN =    51098208.0000

          OUT:                                     OUT:
          ----                                     ----
             STORAGE     =133478383616.0000               STORAGE     =    15086541.0000
       CONSTANT HEAD     = 75082670080.0000         CONSTANT HEAD     =     2018003.8750
               WELLS     =872827387904.0000                 WELLS     =    33579860.0000
                  ET     = 24207585280.0000                    ET     =      413801.2188
            RECHARGE     =           0.0000              RECHARGE     =           0.0000

               TOTAL OUT =       1.1056E+12                 TOTAL OUT =    51098204.0000

                IN - OUT =     1835008.0000                  IN - OUT =           4.0000

     PERCENT DISCREPANCY =           0.00         PERCENT DISCREPANCY =           0.00






         TIME SUMMARY AT END OF TIME STEP   12 IN STRESS PERIOD   71
                    SECONDS     MINUTES      HOURS       DAYS        YEARS
                    -----------------------------------------------------------
   TIME STEP LENGTH 2.62800E+06  43800.      730.00      30.417     8.32763E-02
 STRESS PERIOD TIME 3.15360E+07 5.25600E+05  8760.0      365.00     0.99932    
         TOTAL TIME 2.24060E+09 3.73434E+07 6.22390E+05  25933.      71.000    
1

 HEAD AND DRAWDOWN OBSERVATIONS
 OBSERVATION       OBSERVED           SIMULATED
   NAME              VALUE              VALUE             DIFFERENCE
 --------------------------------------------------------------------
 3522-15-337     2965.0000000        2949.3215332        15.678466797    
 3489-20-74      2968.0000000        2944.7141113        23.285888672    
 3485-19-34      2966.0000000        2942.2075195        23.792480469    
 3465-20-300     2968.0000000        2932.3415527        35.658447266    
 3415-15-154     2955.0000000        2903.3369141        51.663085938    
 3314-43-7       2830.0000000        2799.3364258        30.663574219    
 3241-5-82       2709.0000000        2709.7756348      -0.77563476562    
 3384-7-41       1626.0000000        1641.2976074       -15.297607422    
 3384-12-10      1613.0000000        1620.9539795       -7.9539794922    
 3384-16-340     1572.0000000        1588.8853760       -16.885375977    
 3384-21-335     1549.0000000        1559.7047119       -10.704711914    
 3384-27-13      1531.0000000        1540.3894043       -9.3894042969    
 3384-32-5       1517.0000000        1525.1368408       -8.1368408203    
 3384-36-349     1499.0000000        1506.8961182       -7.8961181641    
 3400-55-321     1558.0000000        1591.5749512       -33.574951172    
 3400-60-312     1568.0000000        1595.4095459       -27.409545898    
 3400-65-363     1583.0000000        1603.9796143       -20.979614258    
 3400-71-349     1600.0000000        1614.9213867       -14.921386719    
 3401-55-321     1613.0000000        1589.5800781        23.419921875    
 3401-60-312     1621.0000000        1592.0850830        28.914916992    
 3401-65-363     1631.0000000        1598.9388428        32.061157227    
 3401-71-349     1650.0000000        1610.2307129        39.769287109    
 3397-11-313     1674.0000000        1687.0147705       -13.014770508    
 3361-21-339     1555.0000000        1559.3497314       -4.3497314453    
 3361-32-5       1524.0000000        1524.8640137      -0.86401367188    
 3346-16-340     1573.0000000        1588.4223633       -15.422363281    
 3346-21-339     1537.0000000        1558.5993652       -21.599365234    
 3346-32-5       1495.0000000        1520.6811523       -25.681152344    
 3346-37-349     1474.0000000        1502.6142578       -28.614257812    
 3346-49-54      1506.0000000        1522.6295166       -16.629516602    
 3346-60-319     1517.0000000        1540.1247559       -23.124755859    
 3346-65-298     1529.0000000        1558.8444824       -29.844482422    
 3346-71-13      1544.0000000        1568.3208008       -24.320800781    
 3376-6-41       1665.0000000        1675.4824219       -10.482421875    
 3376-12-46      1648.0000000        1657.8173828       -9.8173828125    
 3376-16-362     1635.0000000        1632.3615723        2.6384277344    
 3376-21-336     1591.0000000        1606.3507080       -15.350708008    
 3376-27-12      1561.0000000        1584.6359863       -23.635986328    
 3376-38-1       1527.0000000        1550.2855225       -23.285522461    
 3327-56-26      1579.0000000        1577.1958008        1.8041992188    
 3327-66-18      1601.0000000        1600.2611084       0.73889160156    
 3306-1-32       1688.0000000        1693.2579346       -5.2579345703    
 3299-38-41      1546.0000000        1574.1899414       -28.189941406    
 3311-15-337     2982.0000000        2930.2978516        51.702148438    
 3313-32-7       1579.0000000        1607.3438721       -28.343872070    
 3313-38-1       1560.0000000        1590.5089111       -30.508911133    
 3313-56-26      1601.0000000        1594.7489014        6.2510986328    
 3313-66-18      1626.0000000        1614.3526611        11.647338867    
 3303-56-26      1600.0000000        1592.1031494        7.8968505859    
 3303-66-18      1624.0000000        1614.6599121        9.3400878906    
 3302-12-32      1680.0000000        1691.5726318       -11.572631836    
 3302-56-26      1606.0000000        1600.6850586        5.3149414062    
 3302-66-18      1633.0000000        1619.6928711        13.307128906    
 3320-2-305      1680.0000000        1682.5045166       -2.5045166016    
 3324-26-339     1550.0000000        1568.6768799       -18.676879883    
 3312-16-335     1604.0000000        1624.8020020       -20.802001953    
 3312-21-335     1576.0000000        1596.4523926       -20.452392578    
 3312-32-1       1537.0000000        1555.9312744       -18.931274414    
 3312-36-51      1523.0000000        1542.5469971       -19.546997070    
 3294-1-60       1692.0000000        1694.9501953       -2.9501953125    
 3291-16-362     1650.0000000        1655.2602539       -5.2602539062    
 3288-12-32      1671.0000000        1667.4621582        3.5378417969    
 3288-21-335     1622.0000000        1619.1906738        2.8093261719    
 3288-32-7       1602.0000000        1582.6737061        19.326293945    
 3282-21-336     1628.0000000        1639.2757568       -11.275756836    
 3282-32-7       1604.0000000        1603.4406738       0.55932617188    
 3282-38-10      1584.0000000        1588.4282227       -4.4282226562    
 3285-5-179      1699.0000000        1713.2573242       -14.257324219    
 3285-11-25      1690.0000000        1704.9803467       -14.980346680    
 3285-16-341     1666.0000000        1686.2357178       -20.235717773    
 3285-21-336     1639.0000000        1660.2932129       -21.293212891    
 3279-12-39      1679.0000000        1703.1931152       -24.193115234    
 3279-16-362     1650.0000000        1688.0998535       -38.099853516    
 3279-21-341     1639.0000000        1662.1503906       -23.150390625    
 3279-27-28      1624.0000000        1644.8012695       -20.801269531    
 3281-21-336     1635.0000000        1661.5532227       -26.553222656    
 3281-37-350     1573.0000000        1610.7458496       -37.745849609    
 3268-21-274     1652.0000000        1676.2761230       -24.276123047    
 3268-38-6       1576.0000000        1626.6739502       -50.673950195    
 3259-16-348     1684.0000000        1708.1447754       -24.144775391    
 3259-32-7       1619.0000000        1648.2312012       -29.231201172    
 3259-36-350     1606.0000000        1634.8125000       -28.812500000    
 3237-1-365      1723.0000000        1739.6038818       -16.603881836    
 3237-3-355      1721.0000000        1737.1040039       -16.104003906    
 3237-12-59      1713.0000000        1728.3796387       -15.379638672    
 3234-6-284      1719.0000000        1737.3312988       -18.331298828    
 3234-12-32      1710.0000000        1728.6500244       -18.650024414    
 3234-16-348     1689.0000000        1716.3160400       -27.316040039    
 3231-21-341     1661.0000000        1689.2518311       -28.251831055    
 3231-27-12      1642.0000000        1672.3643799       -30.364379883    
 3231-38-3       1595.0000000        1638.4827881       -43.482788086    
 3382-48-363     1604.0000000        1600.1584473        3.8415527344    
 3383-48-363     1619.0000000        1600.1584473        18.841552734    
 3363-56-23      1632.0000000        1609.4866943        22.513305664    
 3363-66-18      1646.0000000        1617.9499512        28.050048828    
 3364-11-342     1694.0000000        1701.5758057       -7.5758056641    
 3364-16-362     1671.0000000        1686.6582031       -15.658203125    
 3364-21-341     1646.0000000        1669.7031250       -23.703125000    
 3364-27-28      1639.0000000        1650.1867676       -11.186767578    
 3364-32-4       1621.0000000        1634.2337646       -13.233764648    
 3364-36-349     1617.0000000        1619.4575195       -2.4575195312    
 3364-43-19      1616.0000000        1605.9104004        10.089599609    
 3364-49-54      1622.0000000        1599.5931396        22.406860352    
 3364-56-25      1626.0000000        1605.7452393        20.254760742    
 3364-60-319     1628.0000000        1608.2883301        19.711669922    
 3364-65-298     1635.0000000        1614.4371338        20.562866211    
 3364-71-13      1648.0000000        1624.2813721        23.718627930    
 3364-71-365     1652.0000000        1625.9738770        26.026123047    
 3370-56-25      1623.0000000        1600.9835205        22.016479492    
 3370-61-72      1628.0000000        1604.2882080        23.711791992    
 3370-66-18      1637.0000000        1610.6719971        26.328002930    
 3353-21-335     1659.0000000        1670.7613525       -11.761352539    
 3353-27-12      1646.0000000        1651.4471436       -5.4471435547    
 3353-56-25      1627.0000000        1607.7788086        19.221191406    
 3353-66-18      1635.0000000        1617.3818359        17.618164062    
 3351-56-25      1628.0000000        1609.0450439        18.954956055    
 3351-61-72      1629.0000000        1611.9128418        17.087158203    
 3351-66-18      1639.0000000        1618.2719727        20.728027344    
 3310-56-23      1643.0000000        1635.9643555        7.0356445312    
 3307-56-23      1644.0000000        1639.1972656        4.8027343750    
 3307-61-73      1649.0000000        1638.1529541        10.847045898    
 3307-66-20      1676.0000000        1645.1215820        30.878417969    
 3292-56-25      1630.0000000        1624.8701172        5.1298828125    
 3292-61-73      1638.0000000        1627.4993896        10.500610352    
 3292-66-19      1663.0000000        1636.9888916        26.011108398    
 3278-11-296     1706.0000000        1722.4980469       -16.498046875    
 3278-16-343     1693.0000000        1707.9057617       -14.905761719    
 3278-21-340     1664.0000000        1684.8925781       -20.892578125    
 3278-27-12      1658.0000000        1667.3620605       -9.3620605469    
 3278-32-4       1650.0000000        1650.8959961      -0.89599609375    
 3278-36-350     1648.0000000        1636.1892090        11.810791016    
 3278-43-19      1650.0000000        1627.3980713        22.601928711    
 3278-49-54      1656.0000000        1630.3835449        25.616455078    
 3278-56-25      1656.0000000        1636.5506592        19.449340820    
 3278-60-319     1660.0000000        1637.4804688        22.519531250    
 3278-65-301     1670.0000000        1644.9448242        25.055175781    
 3278-71-13      1684.0000000        1655.7827148        28.217285156    
 3278-71-365     1686.0000000        1657.3907471        28.609252930    
 3290-56-25      1638.0000000        1633.3603516        4.6396484375    
 3290-61-73      1647.0000000        1634.9017334        12.098266602    
 3290-66-19      1671.0000000        1642.4959717        28.504028320    
 3250-12-32      1737.0000000        1746.0118408       -9.0118408203    
 3250-16-363     1711.0000000        1730.6113281       -19.611328125    
 3250-21-335     1688.0000000        1708.5079346       -20.507934570    
 3250-32-7       1652.0000000        1674.8980713       -22.898071289    
 3250-36-352     1632.0000000        1659.1422119       -27.142211914    
 3308-56-25      1672.0000000        1665.3312988        6.6687011719    
 3308-61-73      1673.0000000        1664.8641357        8.1358642578    
 3308-66-20      1698.0000000        1669.8967285        28.103271484    
 3249-16-363     1709.0000000        1729.5849609       -20.584960938    
 3249-21-340     1688.0000000        1707.1398926       -19.139892578    
 3249-36-352     1660.0000000        1657.9910889        2.0089111328    
 3249-56-25      1688.0000000        1664.2633057        23.736694336    
 3249-61-73      1698.0000000        1663.6728516        34.327148438    
 3233-3-355      1744.0000000        1760.6469727       -16.646972656    
 3233-6-341      1743.0000000        1760.2552490       -17.255249023    
 3233-12-59      1737.0000000        1749.8701172       -12.870117188    
 3233-16-311     1725.0000000        1733.9216309       -8.9216308594    
 3230-16-348     1722.0000000        1734.8984375       -12.898437500    
 3230-21-340     1705.0000000        1713.2310791       -8.2310791016    
 3230-27-1       1694.0000000        1696.1879883       -2.1879882812    
 3230-32-7       1702.0000000        1679.7414551        22.258544922    
 3230-36-352     1682.0000000        1663.5279541        18.472045898    
 3230-56-25      1711.0000000        1673.3952637        37.604736328    
 3230-61-72      1716.0000000        1672.4334717        43.566528320    
 3229-17-4       1729.0000000        1735.7639160       -6.7639160156    
 3247-61-73      1711.0000000        1671.3598633        39.640136719    
 3247-66-20      1715.0000000        1675.5687256        39.431274414    
 3368-56-25      1668.0000000        1664.0413818        3.9586181641    
 3333-12-10      1744.0000000        1756.7801514       -12.780151367    
 3333-16-343     1741.0000000        1751.6607666       -10.660766602    
 3333-32-85      1693.0000000        1712.9686279       -19.968627930    
 3333-35-53      1685.0000000        1704.5056152       -19.505615234    
 3332-49-54      1671.0000000        1672.4667969       -1.4667968750    
 3332-56-26      1674.0000000        1666.7307129        7.2692871094    
 3332-60-319     1679.0000000        1665.7236328        13.276367188    
 3332-65-298     1687.0000000        1665.6364746        21.363525391    
 3332-71-13      1699.0000000        1669.0018311        29.998168945    
 3332-71-365     1701.0000000        1670.0764160        30.923583984    
 3330-56-25      1659.0000000        1663.3151855       -4.3151855469    
 3315-48-300     1659.0000000        1661.4127197       -2.4127197266    
 3315-55-321     1664.0000000        1659.2047119        4.7952880859    
 3315-60-312     1666.0000000        1659.2020264        6.7979736328    
 3315-65-363     1676.0000000        1660.8924561        15.107543945    
 3315-71-351     1691.0000000        1668.5675049        22.432495117    
 3316-48-300     1658.0000000        1661.7467041       -3.7467041016    
 3316-55-321     1663.0000000        1658.9344482        4.0655517578    
 3316-60-312     1666.0000000        1659.3797607        6.6202392578    
 3316-65-363     1677.0000000        1660.3175049        16.682495117    
 3316-71-351     1692.0000000        1667.2166748        24.783325195    
 3284-56-25      1689.0000000        1707.9516602       -18.951660156    
 3275-38-12      1709.0000000        1743.1215820       -34.121582031    
 3287-38-24      1676.0000000        1692.9619141       -16.961914062    
 3265-48-364     1671.0000000        1677.7850342       -6.7850341797    
 3265-56-25      1676.0000000        1683.5968018       -7.5968017578    
 3228-56-20      1682.0000000        1689.2152100       -7.2152099609    
 3228-61-73      1697.0000000        1688.6258545        8.3741455078    
 3228-66-19      1727.0000000        1692.0803223        34.919677734    
 3347-20-74      2968.0000000        2945.2487793        22.751220703    
 3347-26-157     2967.0000000        2957.4406738        9.5593261719    
 3347-37-33      2963.0000000        2957.4406738        5.5593261719    
 3347-43-82      2967.0000000        2962.4284668        4.5715332031    
 3347-48-336     2971.0000000        2965.8962402        5.1037597656    
 3347-56-23      2969.0000000        2966.0097656        2.9902343750    
 3347-61-62      2971.0000000        2963.1530762        7.8469238281    
 3347-65-299     2969.0000000        2965.2407227        3.7592773438    
 3347-71-12      2966.0000000        2962.1936035        3.8063964844    
 3347-71-365     2966.0000000        2960.8757324        5.1242675781    
 3378-15-337     2965.0000000        2959.7839355        5.2160644531    
 3378-26-127     2971.0000000        2978.0490723       -7.0490722656    
 3378-33-312     2954.0000000        2965.5461426       -11.546142578    
 3378-43-82      2971.0000000        2985.0893555       -14.089355469    
 3378-48-337     2976.0000000        2975.8498535       0.15014648438    
 3378-56-23      2976.0000000        2976.5534668      -0.55346679688    
 3378-61-62      2976.0000000        2983.3132324       -7.3132324219    
 3378-66-18      2972.0000000        2978.3437500       -6.3437500000    
 3336-71-63      2981.0000000        2963.4184570        17.581542969    
 3343-19-34      2966.0000000        2942.2390137        23.760986328    
 3343-26-121     2966.0000000        2950.7414551        15.258544922    
 3343-33-311     2952.0000000        2955.1787109       -3.1787109375    
 3343-43-82      2975.0000000        2958.3291016        16.670898438    
 3343-48-336     2978.0000000        2962.6691895        15.330810547    
 3343-56-25      2977.0000000        2962.0217285        14.978271484    
 3343-61-62      2975.0000000        2958.7797852        16.220214844    
 3343-66-24      2971.0000000        2959.3298340        11.670166016    
 3343-71-63      2963.0000000        2955.5769043        7.4230957031    
 3322-20-300     2968.0000000        2934.9924316        33.007568359    
 3322-26-127     2967.0000000        2942.3254395        24.674560547    
 3322-48-337     2973.0000000        2952.5781250        20.421875000    
 3322-56-25      2963.0000000        2951.0712891        11.928710938    
 3322-61-60      2964.0000000        2946.7834473        17.216552734    
 3317-43-85      2959.0000000        2947.6638184        11.336181641    
 3317-56-25      2964.0000000        2949.2673340        14.732666016    
 3317-61-60      2961.0000000        2944.9348145        16.065185547    
 3317-66-27      2959.0000000        2945.9902344        13.009765625    
 3317-71-64      2962.0000000        2944.1845703        17.815429688    
 3300-56-26      2995.0000000        2964.6223145        30.377685547    
 3289-56-26      3009.0000000        2943.3044434        65.695556641    
 3289-61-65      2998.0000000        2924.2094727        73.790527344    
 3276-56-26      3018.0000000        2937.1376953        80.862304688    
 3270-56-26      2964.0000000        2974.5234375       -10.523437500    
 3272-15-154     2955.0000000        2902.3601074        52.639892578    
 3272-26-125     2957.0000000        2915.8088379        41.191162109    
 3272-37-36      2947.0000000        2921.6452637        25.354736328    
 3272-43-27      2962.0000000        2925.3149414        36.685058594    
 3272-48-336     2970.0000000        2929.0029297        40.997070312    
 3272-56-26      2966.0000000        2925.3854980        40.614501953    
 3272-61-60      2962.0000000        2919.0729980        42.927001953    
 3272-71-12      2947.0000000        2920.3159180        26.684082031    
 3266-56-26      2956.0000000        2909.4877930        46.512207031    
 3260-33-313     3027.0000000        2991.7109375        35.289062500    
 3260-48-334     3050.0000000        3000.5400391        49.459960938    
 3260-56-26      3044.0000000        2996.4331055        47.566894531    
 3222-38-6       1714.0000000        1664.0908203        49.909179688    
 3213-12-324     1725.0000000        1746.3840332       -21.384033203    
 3213-16-335     1716.0000000        1734.3449707       -18.344970703    
 3213-21-335     1699.0000000        1709.1875000       -10.187500000    
 3213-32-7       1680.0000000        1675.4663086        4.5336914062    
 3213-38-10      1660.0000000        1658.5979004        1.4020996094    
 3213-56-19      1689.0000000        1669.9196777        19.080322266    
 3205-2-230      1730.0000000        1754.0402832       -24.040283203    
 3205-22-37      1683.0000000        1703.2707520       -20.270751953    
 3191-2-188      1745.0000000        1758.6634521       -13.663452148    
 3178-17-4       1713.0000000        1737.4123535       -24.412353516    
 3178-22-37      1688.0000000        1710.8237305       -22.823730469    
 3178-32-85      1649.0000000        1676.5053711       -27.505371094    
 3178-36-65      1610.0000000        1665.0666504       -55.066650391    
 3178-42-349     1623.0000000        1658.7325439       -35.732543945    
 3178-48-341     1643.0000000        1664.8200684       -21.820068359    
 3178-56-23      1655.0000000        1672.0260010       -17.026000977    
 3178-60-319     1671.0000000        1672.0858154       -1.0858154297    
 3177-17-4       1713.0000000        1740.0490723       -27.049072266    
 3176-11-297     1743.0000000        1756.6286621       -13.628662109    
 3176-16-342     1718.0000000        1741.0601807       -23.060180664    
 3176-21-342     1691.0000000        1715.8289795       -24.828979492    
 3176-32-7       1633.0000000        1679.7452393       -46.745239258    
 3176-34-339     1628.0000000        1670.4522705       -42.452270508    
 3174-21-335     1695.0000000        1719.6202393       -24.620239258    
 3174-56-19      1680.0000000        1683.2530518       -3.2530517578    
 3174-61-60      1690.0000000        1681.9416504        8.0583496094    
 3174-66-24      1723.0000000        1686.9559326        36.044067383    
 3188-2-335      1755.0000000        1776.4470215       -21.447021484    
 3188-6-341      1754.0000000        1775.7773438       -21.777343750    
 3188-10-350     1750.0000000        1763.8369141       -13.836914062    
 3199-38-6       1636.0000000        1669.8341064       -33.834106445    
 3199-48-337     1674.0000000        1679.4821777       -5.4821777344    
 3199-61-60      1705.0000000        1689.1701660        15.829833984    
 3175-48-337     1664.0000000        1678.7718506       -14.771850586    
 3175-56-19      1686.0000000        1689.1540527       -3.1540527344    
 3175-66-24      1729.0000000        1692.0010986        36.998901367    
 3196-56-19      1688.0000000        1691.6593018       -3.6593017578    
 3171-21-335     1716.0000000        1727.2734375       -11.273437500    
 3171-26-313     1672.0000000        1707.9450684       -35.945068359    
 3171-48-337     1698.0000000        1682.2346191        15.765380859    
 3173-48-337     1672.0000000        1681.8751221       -9.8751220703    
 3173-56-19      1692.0000000        1693.5654297       -1.5654296875    
 3173-61-60      1701.0000000        1691.6981201        9.3018798828    
 3173-66-20      1730.0000000        1695.5340576        34.465942383    
 3172-56-19      1682.0000000        1686.9951172       -4.9951171875    
 3172-61-60      1691.0000000        1685.5948486        5.4051513672    
 3172-66-24      1723.0000000        1690.3718262        32.628173828    
 3163-12-91      1748.0000000        1765.3078613       -17.307861328    
 3163-21-335     1701.0000000        1725.5319824       -24.531982422    
 3197-42-351     1684.0000000        1663.1275635        20.872436523    
 3197-48-348     1700.0000000        1669.3260498        30.673950195    
 3197-56-4       1699.0000000        1678.4034424        20.596557617    
 3197-61-5       1719.0000000        1677.3586426        41.641357422    
 3197-65-361     1745.0000000        1682.7327881        62.267211914    
 3197-71-355     1748.0000000        1699.0352783        48.964721680    
 3170-16-348     1732.0000000        1745.0852051       -13.085205078    
 3170-21-342     1703.0000000        1721.2580566       -18.258056641    
 3170-38-6       1681.0000000        1669.0926514        11.907348633    
 3170-42-351     1737.0000000        1668.9180908        68.081909180    
 3170-48-348     1694.0000000        1676.4039307        17.596069336    
 3170-55-354     1703.0000000        1686.0074463        16.992553711    
 3170-61-5       1725.0000000        1684.4537354        40.546264648    
 3170-65-361     1751.0000000        1689.6177979        61.382202148    
 3170-71-355     1754.0000000        1706.6273193        47.372680664    
 3139-21-343     1698.0000000        1723.8687744       -25.868774414    
 3139-71-355     1747.0000000        1709.6667480        37.333251953    
 3143-17-5       1732.0000000        1748.1856689       -16.185668945    
 3143-22-37      1708.0000000        1723.8093262       -15.809326172    
 3143-27-31      1695.0000000        1706.5461426       -11.546142578    
 3143-55-354     1694.0000000        1690.7817383        3.2182617188    
 3143-61-5       1720.0000000        1689.3598633        30.640136719    
 3143-65-361     1757.0000000        1695.1502686        61.849731445    
 3143-71-355     1760.0000000        1713.0490723        46.950927734    
 3166-1-1        1748.0000000        1768.6994629       -20.699462891    
 3166-11-335     1738.0000000        1758.4106445       -20.410644531    
 3166-21-335     1680.0000000        1717.9334717       -37.933471680    
 3100-16-338     1730.0000000        1756.7352295       -26.735229492    
 3100-21-335     1703.0000000        1732.5819092       -29.581909180    
 3100-43-60      1625.0000000        1669.1051025       -44.105102539    
 3100-55-354     1652.0000000        1685.1323242       -33.132324219    
 3100-61-5       1659.0000000        1685.9523926       -26.952392578    
 3100-66-20      1692.0000000        1690.6442871        1.3557128906    
 3100-71-355     1709.0000000        1705.6888428        3.3111572266    
 2939-42-351     1635.0000000        1671.0312500       -36.031250000    
 2939-61-5       1669.0000000        1686.9030762       -17.903076172    
 2939-70-352     1725.0000000        1704.9562988        20.043701172    
 2939-71-355     1727.0000000        1707.1778564        19.822143555    
 3099-21-335     1697.0000000        1732.1154785       -35.115478516    
 3099-61-5       1665.0000000        1686.1418457       -21.141845703    
 3099-66-20      1698.0000000        1690.9920654        7.0079345703    
 3099-71-355     1723.0000000        1706.4326172        16.567382812    
 3113-1-59       1773.0000000        1783.3048096       -10.304809570    
 3113-6-341      1768.0000000        1783.0388184       -15.038818359    
 3113-12-362     1752.0000000        1765.1054688       -13.105468750    
 3113-22-37      1703.0000000        1727.3256836       -24.325683594    
 3113-27-31      1697.0000000        1708.6860352       -11.686035156    
 3113-37-341     1653.0000000        1675.6866455       -22.686645508    
 3113-42-349     1684.0000000        1674.4644775        9.5355224609    
 3113-48-341     1664.0000000        1684.7929688       -20.792968750    
 3113-55-354     1694.0000000        1693.2827148       0.71728515625    
 3113-60-319     1716.0000000        1691.8948975        24.105102539    
 3113-65-298     1744.0000000        1698.4147949        45.585205078    
 3113-71-355     1757.0000000        1717.5518799        39.448120117    
 3097-12-170     1744.0000000        1772.8663330       -28.866333008    
 3097-17-5       1723.0000000        1755.9344482       -32.934448242    
 3097-42-351     1664.0000000        1676.5633545       -12.563354492    
 3097-48-348     1679.0000000        1687.4011230       -8.4011230469    
 3097-55-354     1696.0000000        1695.5876465       0.41235351562    
 3097-61-5       1718.0000000        1695.0303955        22.969604492    
 3097-65-361     1750.0000000        1702.1976318        47.802368164    
 3097-71-355     1760.0000000        1721.8358154        38.164184570    
 3095-42-351     1666.0000000        1676.2618408       -10.261840820    
 3095-48-348     1682.0000000        1686.9725342       -4.9725341797    
 3095-55-354     1698.0000000        1695.1752930        2.8247070312    
 3095-61-5       1720.0000000        1694.5714111        25.428588867    
 3095-65-361     1752.0000000        1701.5986328        50.401367188    
 3095-71-355     1761.0000000        1721.0676270        39.932373047    
 3096-8-283      1773.0000000        1786.2662354       -13.266235352    
 3096-17-5       1736.0000000        1758.5065918       -22.506591797    
 3096-21-335     1708.0000000        1732.7218018       -24.721801758    
 3135-8-282      1775.0000000        1785.7979736       -10.797973633    
 3135-11-355     1766.0000000        1775.7636719       -9.7636718750    
 3135-16-349     1739.0000000        1756.9671631       -17.967163086    
 3135-21-312     1708.0000000        1732.1574707       -24.157470703    
 3135-26-292     1680.0000000        1713.4498291       -33.449829102    
 3135-38-5       1641.0000000        1678.2762451       -37.276245117    
 3135-48-337     1678.0000000        1691.0504150       -13.050415039    
 3135-56-19      1700.0000000        1701.7056885       -1.7056884766    
 3135-61-60      1717.0000000        1700.1812744        16.818725586    
 3121-55-354     1713.0000000        1700.5767822        12.423217773    
 3121-61-5       1724.0000000        1698.4707031        25.529296875    
 3121-66-20      1760.0000000        1705.8709717        54.129028320    
 3121-71-365     1772.0000000        1728.1602783        43.839721680    
 3059-10-57      1779.0000000        1796.5454102       -17.545410156    
 3059-17-5       1744.0000000        1770.4199219       -26.419921875    
 3059-27-31      1693.0000000        1724.3642578       -31.364257812    
 3059-37-33      1717.0000000        1691.4017334        25.598266602    
 3059-42-349     1681.0000000        1689.8179932       -8.8179931641    
 3059-48-342     1700.0000000        1702.8046875       -2.8046875000    
 3059-56-20      1720.0000000        1711.6927490        8.3072509766    
 3059-60-319     1742.0000000        1710.9302979        31.069702148    
 3059-65-301     1777.0000000        1723.8587646        53.141235352    
 3059-71-365     1787.0000000        1751.4497070        35.550292969    
 3078-21-335     1709.0000000        1737.0654297       -28.065429688    
 3080-11-297     1762.0000000        1780.8074951       -18.807495117    
 3075-56-20      1716.0000000        1702.9810791        13.018920898    
 3089-2-339      1774.0000000        1786.9013672       -12.901367188    
 3089-6-341      1772.0000000        1786.4378662       -14.437866211    
 3089-12-362     1763.0000000        1771.6102295       -8.6102294922    
 3089-16-313     1745.0000000        1757.1422119       -12.142211914    
 3089-42-351     1693.0000000        1675.4765625        17.523437500    
 3089-65-361     1743.0000000        1699.2673340        43.732666016    
 3089-71-355     1755.0000000        1717.6290283        37.370971680    
 3053-11-297     1767.0000000        1786.4333496       -19.433349609    
 3053-16-349     1741.0000000        1765.0554199       -24.055419922    
 3053-22-37      1710.0000000        1739.5974121       -29.597412109    
 3053-32-85      1668.0000000        1694.9729004       -26.972900391    
 3053-42-351     1660.0000000        1678.7440186       -18.744018555    
 3053-48-348     1676.0000000        1689.4633789       -13.463378906    
 3053-55-353     1689.0000000        1697.7758789       -8.7758789062    
 3053-61-5       1706.0000000        1698.6492920        7.3507080078    
 3053-65-361     1735.0000000        1704.8715820        30.128417969    
 3053-71-355     1752.0000000        1723.6335449        28.366455078    
 3050-55-353     1689.0000000        1697.8903809       -8.8903808594    
 3050-61-5       1706.0000000        1698.7774658        7.2225341797    
 3050-65-361     1735.0000000        1705.0130615        29.986938477    
 3050-71-355     1752.0000000        1723.7667236        28.233276367    
 3076-37-33      1618.0000000        1681.1905518       -63.190551758    
 3076-42-349     1656.0000000        1678.3948975       -22.394897461    
 3076-48-342     1676.0000000        1688.2258301       -12.225830078    
 3076-56-23      1695.0000000        1697.2022705       -2.2022705078    
 3076-61-60      1701.0000000        1697.8648682        3.1351318359    
 3076-66-24      1742.0000000        1704.9133301        37.086669922    
 3077-55-354     1659.0000000        1688.5565186       -29.556518555    
 3077-61-5       1665.0000000        1688.8414307       -23.841430664    
 3077-66-20      1690.0000000        1693.8259277       -3.8259277344    
 3077-71-355     1718.0000000        1708.9647217        9.0352783203    
 3065-48-348     1663.0000000        1680.4632568       -17.463256836    
 3021-1-107      1784.0000000        1799.5197754       -15.519775391    
 3021-7-3        1782.0000000        1798.2781982       -16.278198242    
 3020-7-3        1781.0000000        1798.3527832       -17.352783203    
 3020-12-59      1775.0000000        1791.8122559       -16.812255859    
 3020-16-314     1755.0000000        1772.4167480       -17.416748047    
 3020-22-37      1731.0000000        1746.1114502       -15.111450195    
 3020-27-31      1697.0000000        1722.7034912       -25.703491211    
 2989-12-59      1780.0000000        1797.5148926       -17.514892578    
 2995-16-313     1748.0000000        1777.3920898       -29.392089844    
 2995-22-37      1734.0000000        1748.8768311       -14.876831055    
 2995-27-31      1719.0000000        1727.9414062       -8.9414062500    
 2995-32-85      1723.0000000        1705.6831055        17.316894531    
 3201-48-300     1676.0000000        1705.6556396       -29.655639648    
 3201-55-321     1685.0000000        1712.9912109       -27.991210938    
 3201-60-312     1692.0000000        1713.3811035       -21.381103516    
 3201-65-363     1706.0000000        1722.2934570       -16.293457031    
 3201-71-10      1726.0000000        1742.6365967       -16.636596680    
 3202-48-300     1678.0000000        1700.9584961       -22.958496094    
 3202-55-321     1687.0000000        1708.6762695       -21.676269531    
 3202-60-312     1696.0000000        1709.7030029       -13.703002930    
 3202-65-363     1720.0000000        1716.2719727        3.7280273438    
 3202-71-10      1745.0000000        1735.9223633        9.0776367188    
 3200-21-335     1763.0000000        1784.6883545       -21.688354492    
 3200-32-6       1728.0000000        1753.2735596       -25.273559570    
 3200-36-351     1712.0000000        1740.0079346       -28.007934570    
 3200-49-54      1695.0000000        1731.3308105       -36.330810547    
 3200-56-24      1699.0000000        1735.3438721       -36.343872070    
 3200-60-319     1706.0000000        1737.0599365       -31.059936523    
 3200-65-298     1718.0000000        1746.2291260       -28.229125977    
 3200-71-365     1736.0000000        1771.5385742       -35.538574219    
 3154-1-337      1791.0000000        1800.2902832       -9.2902832031    
 3154-6-286      1782.0000000        1797.1423340       -15.142333984    
 3154-11-298     1778.0000000        1787.9711914       -9.9711914062    
 3154-16-358     1742.0000000        1764.9909668       -22.990966797    
 3154-21-343     1712.0000000        1742.2946777       -30.294677734    
 3154-32-85      1660.0000000        1706.5388184       -46.538818359    
 3154-37-33      1649.0000000        1696.3612061       -47.361206055    
 3154-42-349     1651.0000000        1695.9414062       -44.941406250    
 3150-48-337     1681.0000000        1704.9051514       -23.905151367    
 3150-56-23      1704.0000000        1717.9101562       -13.910156250    
 3150-60-319     1720.0000000        1716.3072510        3.6927490234    
 3150-65-298     1752.0000000        1727.5599365        24.440063477    
 3150-71-11      1775.0000000        1755.6838379        19.316162109    
 3150-71-365     1776.0000000        1758.5407715        17.459228516    
 3158-12-85      1766.0000000        1786.0007324       -20.000732422    
 3158-16-342     1740.0000000        1766.4686279       -26.468627930    
 3158-21-346     1712.0000000        1744.4151611       -32.415161133    
 3158-56-25      1700.0000000        1717.5938721       -17.593872070    
 3158-61-55      1720.0000000        1716.5366211        3.4633789062    
 3158-66-19      1753.0000000        1727.9741211        25.025878906    
 3179-8-1        1777.0000000        1784.5687256       -7.5687255859    
 3151-12-33      1773.0000000        1782.0026855       -9.0026855469    
 3151-16-342     1740.0000000        1760.9171143       -20.917114258    
 3151-21-346     1717.0000000        1735.9627686       -18.962768555    
 3151-56-23      1705.0000000        1713.7196045       -8.7196044922    
 3151-61-55      1725.0000000        1711.6411133        13.358886719    
 3151-66-18      1758.0000000        1721.9114990        36.088500977    
 3167-34-152     1703.0000000        1690.0233154        12.976684570    
 3103-38-3       1652.0000000        1689.4963379       -37.496337891    
 3101-66-24      1760.0000000        1728.1661377        31.833862305    
 3105-8-1        1789.0000000        1802.3206787       -13.320678711    
 3105-56-23      1710.0000000        1721.1330566       -11.133056641    
 3105-61-55      1731.0000000        1720.2088623        10.791137695    
 3105-66-18      1767.0000000        1737.7828369        29.217163086    
 3142-12-1       1778.0000000        1793.6312256       -15.631225586    
 3142-16-342     1744.0000000        1771.8612061       -27.861206055    
 3142-56-24      1707.0000000        1723.3117676       -16.311767578    
 3142-61-55      1726.0000000        1722.8067627        3.1932373047    
 3142-66-19      1759.0000000        1737.9273682        21.072631836    
 3138-21-346     1718.0000000        1750.6192627       -32.619262695    
 3138-56-24      1708.0000000        1723.4349365       -15.434936523    
 3138-61-55      1727.0000000        1722.9323730        4.0676269531    
 3138-66-19      1760.0000000        1738.1994629        21.800537109    
 3119-48-337     1687.0000000        1710.3300781       -23.330078125    
 3119-56-23      1712.0000000        1723.0159912       -11.015991211    
 3119-61-60      1732.0000000        1722.1735840        9.8264160156    
 3119-66-18      1768.0000000        1739.1899414        28.810058594    
 3130-2-305      1828.0000000        1808.3259277        19.674072266    
 3108-8-32       1790.0000000        1810.4731445       -20.473144531    
 3104-56-26      1723.0000000        1737.7395020       -14.739501953    
 3104-61-55      1744.0000000        1738.6131592        5.3868408203    
 3104-66-19      1777.0000000        1763.4863281        13.513671875    
 3102-56-26      1724.0000000        1739.1455078       -15.145507812    
 3102-61-55      1744.0000000        1740.1611328        3.8388671875    
 3102-66-19      1776.0000000        1765.3387451        10.661254883    
 3140-48-300     1690.0000000        1730.3244629       -40.324462891    
 3141-48-300     1693.0000000        1730.3244629       -37.324462891    
 3061-66-19      1799.0000000        1800.9793701       -1.9793701172    
 3085-1-337      1814.0000000        1830.4075928       -16.407592773    
 3085-6-286      1805.0000000        1827.3081055       -22.308105469    
 3085-11-361     1794.0000000        1819.7031250       -25.703125000    
 3085-16-350     1764.0000000        1800.1286621       -36.128662109    
 3085-21-346     1739.0000000        1784.0692139       -45.069213867    
 3064-56-25      1746.0000000        1768.6141357       -22.614135742    
 3083-56-23      1725.0000000        1742.0969238       -17.096923828    
 3083-61-55      1747.0000000        1743.6046143        3.3953857422    
 3083-66-18      1785.0000000        1772.9157715        12.084228516    
 3084-10-60      1787.0000000        1807.0439453       -20.043945312    
 3084-48-341     1690.0000000        1718.3232422       -28.323242188    
 3084-56-23      1716.0000000        1729.9498291       -13.949829102    
 3084-61-55      1737.0000000        1730.1208496        6.8791503906    
 3084-66-18      1775.0000000        1757.0853271        17.914672852    
 3081-48-341     1690.0000000        1716.8526611       -26.852661133    
 3081-56-23      1714.0000000        1728.5747070       -14.574707031    
 3081-61-55      1736.0000000        1728.6755371        7.3244628906    
 3081-66-18      1774.0000000        1754.6015625        19.398437500    
 3079-1-365      1791.0000000        1813.4935303       -22.493530273    
 3058-48-337     1697.0000000        1727.0202637       -30.020263672    
 3058-56-23      1722.0000000        1737.9260254       -15.926025391    
 3058-61-55      1745.0000000        1740.3220215        4.6779785156    
 3058-66-18      1782.0000000        1778.0421143        3.9578857422    
 3086-12-247     1778.0000000        1790.1080322       -12.108032227    
 3107-1-365      1784.0000000        1799.4837646       -15.483764648    
 3107-11-334     1774.0000000        1785.7076416       -11.707641602    
 3040-10-32      1777.0000000        1804.9284668       -27.928466797    
 3017-71-5       1785.0000000        1754.6574707        30.342529297    
 3017-71-365     1787.0000000        1758.1108398        28.889160156    
 3015-55-354     1715.0000000        1713.8297119        1.1702880859    
 3015-71-5       1790.0000000        1754.7387695        35.261230469    
 3015-71-365     1792.0000000        1758.1600342        33.839965820    
 3054-10-32      1780.0000000        1808.0599365       -28.059936523    
 3046-12-247     1759.0000000        1796.4583740       -37.458374023    
 3046-16-350     1748.0000000        1780.3697510       -32.369750977    
 3046-21-343     1714.0000000        1754.4975586       -40.497558594    
 3046-32-8       1684.0000000        1717.5091553       -33.509155273    
 3046-36-87      1671.0000000        1710.5279541       -39.527954102    
 3036-11-18      1788.0000000        1806.9228516       -18.922851562    
 3036-16-350     1755.0000000        1782.6801758       -27.680175781    
 3036-21-335     1722.0000000        1756.5277100       -34.527709961    
 3030-12-247     1770.0000000        1807.7481689       -37.748168945    
 3030-16-350     1757.0000000        1791.7845459       -34.784545898    
 3030-21-346     1725.0000000        1767.2481689       -42.248168945    
 3038-1-337      1816.0000000        1836.3664551       -20.366455078    
 3038-6-286      1808.0000000        1834.9918213       -26.991821289    
 3038-11-338     1796.0000000        1824.6146240       -28.614624023    
 3038-16-350     1765.0000000        1804.5251465       -39.525146484    
 3038-21-312     1732.0000000        1783.7253418       -51.725341797    
 3038-42-349     1678.0000000        1738.7889404       -60.788940430    
 3035-48-337     1709.0000000        1745.6704102       -36.670410156    
 3035-56-23      1737.0000000        1754.7542725       -17.754272461    
 3035-60-319     1755.0000000        1757.3585205       -2.3585205078    
 3035-66-18      1790.0000000        1795.1633301       -5.1633300781    
 3035-71-11      1802.0000000        1822.9475098       -20.947509766    
 3035-71-365     1804.0000000        1825.4340820       -21.434082031    
 3007-12-76      1799.0000000        1827.4692383       -28.469238281    
 3007-48-337     1714.0000000        1750.3891602       -36.389160156    
 3007-56-23      1743.0000000        1759.7280273       -16.728027344    
 3007-61-55      1764.0000000        1760.2637939        3.7362060547    
 3007-66-18      1797.0000000        1793.8964844        3.1035156250    
 3032-10-32      1837.0000000        1845.0729980       -8.0729980469    
 3032-48-337     1721.0000000        1762.9909668       -41.990966797    
 3032-56-23      1749.0000000        1769.6257324       -20.625732422    
 3032-61-55      1769.0000000        1771.1291504       -2.1291503906    
 3032-66-27      1792.0000000        1802.9591064       -10.959106445    
 3006-56-23      1745.0000000        1768.3272705       -23.327270508    
 3006-61-55      1767.0000000        1772.8684082       -5.8684082031    
 3006-66-18      1801.0000000        1816.5087891       -15.508789062    
 3005-10-60      1836.0000000        1850.6890869       -14.689086914    
 3005-48-337     1770.0000000        1771.2471924       -1.2471923828    
 3005-56-23      1795.0000000        1777.5002441        17.499755859    
 3005-61-55      1805.0000000        1779.7557373        25.244262695    
 3005-66-18      1812.0000000        1814.8997803       -2.8997802734    
 3002-56-23      1794.0000000        1786.7558594        7.2441406250    
 3002-61-55      1805.0000000        1787.5895996        17.410400391    
 3002-66-19      1810.0000000        1816.9030762       -6.9030761719    
 3182-48-337     1674.0000000        1688.1623535       -14.162353516    
 3182-56-19      1692.0000000        1700.2420654       -8.2420654297    
 3182-61-60      1708.0000000        1698.0028076        9.9971923828    
 3182-66-27      1739.0000000        1703.3073730        35.692626953    
 3155-8-1        1775.0000000        1790.0765381       -15.076538086    
 3155-48-337     1676.0000000        1695.8601074       -19.860107422    
 3155-56-19      1717.0000000        1707.7058105        9.2941894531    
 3155-66-24      1748.0000000        1713.5231934        34.476806641    
 2695-43-60      1677.0000000        1692.1635742       -15.163574219    
 2695-55-354     1712.0000000        1713.7828369       -1.7828369141    
 2695-61-7       1726.0000000        1714.9241943        11.075805664    
 2695-65-361     1770.0000000        1730.5527344        39.447265625    
 2695-71-5       1782.0000000        1754.4923096        27.507690430    
 2695-71-365     1784.0000000        1757.9162598        26.083740234    
 3037-48-364     1774.0000000        1796.9101562       -22.910156250    
 3009-56-25      1908.0000000        1842.3698730        65.630126953    
 3009-61-55      1906.0000000        1837.8988037        68.101196289    
 3001-56-25      1910.0000000        1845.5546875        64.445312500    
 3001-61-55      1908.0000000        1840.8239746        67.176025391    
 3004-17-1       2018.0000000        2015.8153076        2.1846923828    
 3004-22-1       2015.0000000        2013.7730713        1.2269287109    
 3004-27-32      2001.0000000        2008.8708496       -7.8708496094    
 3004-37-36      2005.0000000        1997.7871094        7.2128906250    
 3004-66-24      2001.0000000        1955.6041260        45.395874023    
 3004-71-57      1994.0000000        1953.2514648        40.748535156    
 3010-48-334     2113.0000000        2104.6315918        8.3684082031    
 3010-56-27      2109.0000000        2096.6064453        12.393554688    
 3039-42-364     2228.0000000        2293.8337402       -65.833740234    
 3039-48-335     2245.0000000        2291.4968262       -46.496826172    
 3039-56-25      2227.0000000        2287.1945801       -60.194580078    
 3019-31-297     2244.0000000        2238.4252930        5.5747070312    
 2997-36-32      2229.0000000        2249.9882812       -20.988281250    
 2997-43-41      2230.0000000        2245.9025879       -15.902587891    
 2997-48-334     2229.0000000        2242.3493652       -13.349365234    
 3012-31-339     2316.0000000        2284.8137207        31.186279297    
 3016-8-222      2284.0000000        2328.7463379       -44.746337891    
 3016-11-53      2300.0000000        2328.4228516       -28.422851562    
 3014-42-365     2297.0000000        2326.9199219       -29.919921875    
 3014-48-334     2299.0000000        2325.7014160       -26.701416016    
 3014-56-24      2299.0000000        2319.5815430       -20.581542969    
 3014-61-59      2298.0000000        2308.2583008       -10.258300781    
 3014-66-25      2291.0000000        2294.8305664       -3.8305664062    
 3014-71-54      2278.0000000        2281.2819824       -3.2819824219    
 3013-43-6       2316.0000000        2338.7448730       -22.744873047    
 3013-48-335     2319.0000000        2337.2634277       -18.263427734    
 3013-56-26      2319.0000000        2328.5297852       -9.5297851562    
 3013-66-28      2310.0000000        2304.4843750        5.5156250000    
 3041-66-33      2468.0000000        2466.5905762        1.4094238281    
 3041-71-61      2459.0000000        2456.1430664        2.8569335938    
 3055-11-56      2467.0000000        2496.9223633       -29.922363281    
 3055-43-6       2457.0000000        2511.4863281       -54.486328125    
 3055-48-335     2469.0000000        2516.0788574       -47.078857422    
 3055-56-19      2469.0000000        2507.3908691       -38.390869141    
 3251-48-334     3019.0000000        2965.5717773        53.428222656    
 3246-56-26      2986.0000000        2958.5419922        27.458007812    
 3248-16-116     2955.0000000        2920.6801758        34.319824219    
 3248-21-116     2975.0000000        2942.4257812        32.574218750    
 3248-26-125     2959.0000000        2962.2463379       -3.2463378906    
 3248-31-111     2961.0000000        2964.1042480       -3.1042480469    
 3248-37-36      2957.0000000        2949.1240234        7.8759765625    
 3248-43-81      2972.0000000        2965.8178711        6.1821289062    
 3248-48-334     2988.0000000        2965.2995605        22.700439453    
 3248-56-26      2987.0000000        2959.1635742        27.836425781    
 3248-71-61      2965.0000000        2941.6745605        23.325439453    
 3242-56-26      2985.0000000        2946.8383789        38.161621094    
 3241-61-61      2998.0000000        2945.5981445        52.401855469    
 3241-66-18      2981.0000000        2957.4592285        23.540771484    
 3241-71-61      3005.0000000        2942.6713867        62.328613281    
 3235-71-64      3012.0000000        2930.9462891        81.053710938    
 3221-66-33      2925.0000000        2896.1286621        28.871337891    
 3262-42-335     2939.0000000        2901.2316895        37.768310547    
 3262-49-8       2944.0000000        2907.5888672        36.411132812    
 3262-55-342     2943.0000000        2906.0661621        36.933837891    
 3262-61-35      2939.0000000        2902.5339355        36.466064453    
 3262-66-33      2931.0000000        2901.6044922        29.395507812    
 3262-71-323     2925.0000000        2897.2377930        27.762207031    
 3256-27-125     2931.0000000        2882.9150391        48.084960938    
 3256-37-36      2916.0000000        2887.6103516        28.389648438    
 3256-48-356     2938.0000000        2894.8962402        43.103759766    
 3256-55-342     2934.0000000        2893.3049316        40.695068359    
 3256-66-33      2926.0000000        2889.0329590        36.967041016    
 3256-71-323     2917.0000000        2883.7268066        33.273193359    
 3252-43-81      2932.0000000        2890.0708008        41.929199219    
 3252-48-336     2934.0000000        2890.3127441        43.687255859    
 3252-56-27      2930.0000000        2890.4846191        39.515380859    
 3252-60-323     2929.0000000        2884.4050293        44.594970703    
 3252-65-299     2923.0000000        2888.1730957        34.826904297    
 3252-71-365     2915.0000000        2881.5952148        33.404785156    
 3253-55-342     2930.0000000        2893.5178223        36.482177734    
 3253-60-335     2927.0000000        2887.0600586        39.939941406    
 3253-66-34      2925.0000000        2888.3874512        36.612548828    
 3253-71-323     2917.0000000        2883.2600098        33.739990234    
 3263-16-299     2905.0000000        2843.7414551        61.258544922    
 3263-26-127     2904.0000000        2860.2473145        43.752685547    
 3263-43-60      2902.0000000        2870.9809570        31.019042969    
 3263-48-356     2911.0000000        2874.8369141        36.163085938    
 3263-56-24      2900.0000000        2872.8669434        27.133056641    
 3263-66-33      2901.0000000        2869.4062500        31.593750000    
 3263-71-365     2895.0000000        2865.2468262        29.753173828    
 3224-56-27      2930.0000000        2887.6984863        42.301513672    
 3209-33-314     2882.0000000        2861.4780273        20.521972656    
 3210-43-81      2884.0000000        2862.1274414        21.872558594    
 3210-48-336     2887.0000000        2865.1628418        21.837158203    
 3210-56-26      2894.0000000        2862.1889648        31.811035156    
 3195-33-32      2815.0000000        2842.7858887       -27.785888672    
 3180-34-152     2820.0000000        2839.3168945       -19.316894531    
 3184-66-28      2857.0000000        2841.4221191        15.577880859    
 3184-71-62      2852.0000000        2838.9296875        13.070312500    
 3186-66-28      2856.0000000        2842.0864258        13.913574219    
 3186-71-60      2852.0000000        2839.6726074        12.327392578    
 3183-66-31      2872.0000000        2851.1816406        20.818359375    
 3207-43-7       2948.0000000        2918.5383301        29.461669922    
 3207-48-334     2964.0000000        2915.5825195        48.417480469    
 3207-56-26      2976.0000000        2911.3137207        64.686279297    
 3190-43-7       2890.0000000        2856.8161621        33.183837891    
 3190-48-336     2901.0000000        2863.7480469        37.251953125    
 3190-56-25      2904.0000000        2858.6855469        45.314453125    
 3194-71-62      2908.0000000        2881.3923340        26.607666016    
 3192-66-34      2931.0000000        2889.2150879        41.784912109    
 3192-71-60      2929.0000000        2879.6601562        49.339843750    
 3187-43-7       2909.0000000        2882.4665527        26.533447266    
 3187-48-334     2917.0000000        2876.2277832        40.772216797    
 3203-71-62      2945.0000000        2900.0346680        44.965332031    
 3165-71-62      2841.0000000        2835.4140625        5.5859375000    
 3148-43-7       2842.0000000        2818.1230469        23.876953125    
 3157-71-62      2841.0000000        2825.3662109        15.633789062    
 3152-71-62      2846.0000000        2818.4763184        27.523681641    
 3169-43-8       2834.0000000        2827.7246094        6.2753906250    
 3169-48-336     2821.0000000        2829.7697754       -8.7697753906    
 3169-66-34      2822.0000000        2822.8225098      -0.82250976562    
 3169-71-61      2805.0000000        2816.7033691       -11.703369141    
 3168-43-7       2830.0000000        2825.1547852        4.8452148438    
 3168-56-26      2830.0000000        2825.6652832        4.3347167969    
 3168-66-34      2829.0000000        2822.2448730        6.7551269531    
 3156-27-289     2792.0000000        2801.5891113       -9.5891113281    
 3144-43-7       2755.0000000        2794.2944336       -39.294433594    
 3144-56-25      2765.0000000        2793.9338379       -28.933837891    
 3144-66-34      2744.0000000        2790.2189941       -46.218994141    
 3144-71-60      2734.0000000        2785.0305176       -51.030517578    
 3110-43-5       2722.0000000        2758.9201660       -36.920166016    
 3110-48-335     2730.0000000        2760.1999512       -30.199951172    
 3136-43-7       2851.0000000        2826.7319336        24.268066406    
 3136-48-334     2861.0000000        2824.1215820        36.878417969    
 3136-56-26      2868.0000000        2821.6755371        46.324462891    
 3136-66-35      2846.0000000        2819.3237305        26.676269531    
 3136-71-61      2827.0000000        2811.9470215        15.052978516    
 3093-5-82       2709.0000000        2709.4750977      -0.47509765625    
 3093-6-97       2709.0000000        2709.1740723      -0.17407226562    
 3093-16-133     2692.0000000        2711.9926758       -19.992675781    
 3093-26-124     2688.0000000        2737.6181641       -49.618164062    
 3093-37-37      2684.0000000        2733.9853516       -49.985351562    
 3093-43-7       2727.0000000        2747.5266113       -20.526611328    
 3094-48-337     2811.0000000        2785.6909180        25.309082031    
 3094-66-33      2785.0000000        2777.8164062        7.1835937500    
 3094-71-61      2774.0000000        2774.4648438      -0.46484375000    
 3057-48-337     2564.0000000        2579.8989258       -15.898925781    
 3057-56-25      2558.0000000        2569.9794922       -11.979492188    
 3011-48-337     2533.0000000        2511.7661133        21.233886719    
 3011-66-33      2460.0000000        2454.6181641        5.3818359375    
 3011-71-61      2447.0000000        2443.4396973        3.5603027344    
 3026-48-337     2520.0000000        2551.7329102       -31.732910156    
 3026-56-25      2554.0000000        2539.9990234        14.000976562    
 2999-16-361     2530.0000000        2534.8635254       -4.8635253906    
 2999-22-31      2533.0000000        2545.5268555       -12.526855469    
 2999-27-11      2522.0000000        2555.6689453       -33.668945312    
 2999-31-351     2526.0000000        2555.9296875       -29.929687500    
 2999-37-343     2520.0000000        2550.5151367       -30.515136719    
 2999-56-25      2568.0000000        2543.6882324        24.311767578    
 2999-66-33      2500.0000000        2516.1967773       -16.196777344    
 2999-71-61      2475.0000000        2500.3452148       -25.345214844    
 2994-43-5       2561.0000000        2567.9326172       -6.9326171875    
 2994-56-25      2576.0000000        2554.3017578        21.698242188    
 3029-48-336     2649.0000000        2644.7751465        4.2248535156    
 3029-56-26      2651.0000000        2638.8984375        12.101562500    
 3029-66-33      2616.0000000        2624.6547852       -8.6547851562    
 3008-48-336     2686.0000000        2679.4150391        6.5849609375    
 3008-56-26      2693.0000000        2673.6381836        19.361816406    
 2963-1-107      1799.0000000        1813.9149170       -14.914916992    
 2948-17-4       1766.0000000        1781.7083740       -15.708374023    
 2982-48-348     1665.0000000        1696.9689941       -31.968994141    
 2982-55-354     1675.0000000        1705.1511230       -30.151123047    
 2982-61-7       1679.0000000        1706.9221191       -27.922119141    
 2982-66-55      1695.0000000        1713.0136719       -18.013671875    
 2982-71-355     1716.0000000        1729.7557373       -13.755737305    
 2968-71-365     1752.0000000        1732.3277588        19.672241211    
 2951-42-351     1676.0000000        1684.8048096       -8.8048095703    
 2951-48-348     1682.0000000        1700.8406982       -18.840698242    
 2951-55-354     1690.0000000        1708.3489990       -18.348999023    
 2951-61-5       1696.0000000        1710.1679688       -14.167968750    
 2951-66-20      1714.0000000        1715.9197998       -1.9197998047    
 2951-71-355     1736.0000000        1732.3952637        3.6047363281    
 2950-12-335     1795.0000000        1806.2521973       -11.252197266    
 2950-55-354     1695.0000000        1709.1762695       -14.176269531    
 2945-1-107      1802.0000000        1816.2808838       -14.280883789    
 2945-7-3        1799.0000000        1814.7452393       -15.745239258    
 2945-10-320     1798.0000000        1811.6964111       -13.696411133    
 2902-42-351     1680.0000000        1692.4899902       -12.489990234    
 2902-48-348     1690.0000000        1709.9326172       -19.932617188    
 2902-55-354     1697.0000000        1716.0447998       -19.044799805    
 2902-61-5       1703.0000000        1718.0881348       -15.088134766    
 2902-66-20      1715.0000000        1722.9283447       -7.9283447266    
 2902-71-355     1732.0000000        1738.3725586       -6.3725585938    
 2906-12-332     1816.0000000        1817.4504395       -1.4504394531    
 2906-17-4       1787.0000000        1793.7239990       -6.7239990234    
 2906-22-34      1763.0000000        1765.6654053       -2.6654052734    
 2906-32-85      1709.0000000        1709.0911865      -9.11865234375E-02
 2906-37-33      1693.0000000        1685.7841797        7.2158203125    
 2906-48-365     1698.0000000        1709.0947266       -11.094726562    
 2906-55-354     1704.0000000        1715.9108887       -11.910888672    
 2906-61-5       1712.0000000        1718.2725830       -6.2725830078    
 2906-66-20      1724.0000000        1723.7238770       0.27612304688    
 2906-71-365     1744.0000000        1740.1339111        3.8660888672    
 2922-16-313     1748.0000000        1786.6582031       -38.658203125    
 2922-22-34      1736.0000000        1758.0894775       -22.089477539    
 2922-27-13      1727.0000000        1731.9693604       -4.9693603516    
 2559-17-6       1766.0000000        1789.1868896       -23.186889648    
 2559-42-351     1729.0000000        1692.0861816        36.913818359    
 2559-48-348     1727.0000000        1706.5057373        20.494262695    
 2559-56-3       1747.0000000        1712.8050537        34.194946289    
 2559-66-20      1779.0000000        1731.4750977        47.524902344    
 2559-71-365     1791.0000000        1753.9013672        37.098632812    
 2920-1-109      1851.0000000        1820.5466309        30.453369141    
 2901-42-351     1703.0000000        1691.2175293        11.782470703    
 2901-55-355     1725.0000000        1713.6391602        11.360839844    
 2901-61-5       1741.0000000        1719.3806152        21.619384766    
 2901-66-20      1777.0000000        1732.9039307        44.096069336    
 2901-71-365     1790.0000000        1757.6433105        32.356689453    
 2905-17-6       1766.0000000        1790.6617432       -24.661743164    
 2905-22-34      1752.0000000        1761.9099121       -9.9099121094    
 2905-42-351     1705.0000000        1691.2593994        13.740600586    
 2905-71-50      1791.0000000        1754.2760010        36.723999023    
 2905-71-365     1792.0000000        1757.5532227        34.446777344    
 2907-42-351     1686.0000000        1695.3808594       -9.3808593750    
 2907-48-348     1710.0000000        1709.5312500       0.46875000000    
 2907-55-355     1725.0000000        1716.5832520        8.4167480469    
 2907-61-5       1744.0000000        1722.3544922        21.645507812    
 2907-66-20      1779.0000000        1734.1738281        44.826171875    
 2907-71-365     1793.0000000        1757.4359131        35.564086914    
 2900-17-6       1758.0000000        1790.9156494       -32.915649414    
 2900-56-20      1729.0000000        1712.8929443        16.107055664    
 2900-66-26      1782.0000000        1736.0919189        45.908081055    
 2874-3-290      1828.0000000        1829.2888184       -1.2888183594    
 2838-3-1        1817.0000000        1836.4096680       -19.409667969    
 2809-16-354     1803.0000000        1809.8051758       -6.8051757812    
 2788-1-105      1834.0000000        1847.5511475       -13.551147461    
 2788-7-3        1834.0000000        1845.3488770       -11.348876953    
 2788-11-311     1833.0000000        1840.1276855       -7.1276855469    
 2780-12-173     1827.0000000        1838.2236328       -11.223632812    
 2780-16-354     1802.0000000        1812.8004150       -10.800415039    
 2780-37-33      1689.0000000        1696.8195801       -7.8195800781    
 2779-16-354     1809.0000000        1814.0825195       -5.0825195312    
 2779-22-34      1782.0000000        1782.3013916      -0.30139160156    
 2777-16-354     1824.0000000        1815.3288574        8.6711425781    
 2787-16-335     1815.0000000        1815.7697754      -0.76977539062    
 2787-22-34      1802.0000000        1782.7999268        19.200073242    
 2787-34-351     1762.0000000        1710.7041016        51.295898438    
 2787-56-25      1747.0000000        1726.0926514        20.907348633    
 2787-61-52      1751.0000000        1736.4633789        14.536621094    
 2787-66-25      1760.0000000        1740.4882812        19.511718750    
 2783-17-6       1822.0000000        1813.9121094        8.0878906250    
 2783-56-25      1749.0000000        1731.0861816        17.913818359    
 2783-66-20      1780.0000000        1743.3205566        36.679443359    
 2783-71-365     1781.0000000        1764.1577148        16.842285156    
 2790-66-20      1764.0000000        1746.2283936        17.771606445    
 2790-71-365     1774.0000000        1764.6944580        9.3055419922    
 2745-16-354     1825.0000000        1821.2940674        3.7059326172    
 2745-66-20      1767.0000000        1744.9713135        22.028686523    
 2745-71-365     1771.0000000        1763.4815674        7.5184326172    
 2775-1-86       1838.0000000        1850.5102539       -12.510253906    
 2775-7-68       1836.0000000        1847.9776611       -11.977661133    
 2731-48-348     1740.0000000        1727.0174561        12.982543945    
 2731-55-354     1732.0000000        1736.8087158       -4.8087158203    
 2731-61-5       1751.0000000        1744.2872314        6.7127685547    
 2731-66-20      1763.0000000        1747.2384033        15.761596680    
 2731-71-365     1772.0000000        1764.1314697        7.8685302734    
 2771-22-21      1796.0000000        1780.7368164        15.263183594    
 2718-17-6       1829.0000000        1823.9234619        5.0765380859    
 2718-27-13      1784.0000000        1761.1968994        22.803100586    
 2769-56-26      1705.0000000        1731.4450684       -26.445068359    
 2769-61-55      1708.0000000        1733.2745361       -25.274536133    
 2769-66-26      1715.0000000        1737.0063477       -22.006347656    
 2758-7-344      1835.0000000        1844.8488770       -9.8488769531    
 2675-48-348     1693.0000000        1732.1857910       -39.185791016    
 2675-61-4       1704.0000000        1744.4930420       -40.493041992    
 2675-66-20      1711.0000000        1748.8037109       -37.803710938    
 2675-71-365     1726.0000000        1758.1018066       -32.101806641    
 2637-42-351     1723.0000000        1719.0285645        3.9714355469    
 2637-48-349     1721.0000000        1737.6658936       -16.665893555    
 2637-55-355     1721.0000000        1747.9666748       -26.966674805    
 2637-61-4       1722.0000000        1750.1840820       -28.184082031    
 2637-66-51      1728.0000000        1755.0874023       -27.087402344    
 2637-71-365     1741.0000000        1763.1230469       -22.123046875    
 2641-16-355     1822.0000000        1830.8955078       -8.8955078125    
 2641-56-25      1716.0000000        1748.9826660       -32.982666016    
 2641-61-53      1720.0000000        1750.2460938       -30.246093750    
 2641-66-26      1717.0000000        1756.9732666       -39.973266602    
 2640-42-351     1705.0000000        1721.2375488       -16.237548828    
 2640-48-348     1712.0000000        1741.5306396       -29.530639648    
 2640-55-355     1717.0000000        1750.0948486       -33.094848633    
 2640-61-4       1721.0000000        1752.1766357       -31.176635742    
 2640-66-20      1732.0000000        1757.4871826       -25.487182617    
 2640-71-4       1743.0000000        1763.1201172       -20.120117188    
 2640-71-365     1745.0000000        1766.2291260       -21.229125977    
 2636-42-351     1705.0000000        1721.1899414       -16.189941406    
 2636-48-348     1710.0000000        1741.4199219       -31.419921875    
 2636-55-355     1704.0000000        1750.0269775       -46.026977539    
 2636-61-4       1718.0000000        1752.1530762       -34.153076172    
 2636-66-20      1727.0000000        1757.3894043       -30.389404297    
 2636-71-5       1738.0000000        1763.0809326       -25.080932617    
 2636-71-365     1741.0000000        1766.1724854       -25.172485352    
 2639-12-178     1856.0000000        1861.2210693       -5.2210693359    
 2639-16-354     1839.0000000        1834.3420410        4.6579589844    
 2639-42-351     1715.0000000        1724.1513672       -9.1513671875    
 2639-48-348     1725.0000000        1742.5718994       -17.571899414    
 2639-71-50      1753.0000000        1763.4617920       -10.461791992    
 2639-71-365     1754.0000000        1765.8167725       -11.816772461    
 2654-56-25      1734.0000000        1751.3258057       -17.325805664    
 2654-61-52      1736.0000000        1754.3186035       -18.318603516    
 2978-1-364      1871.0000000        1876.5220947       -5.5220947266    
 2978-4-93       1868.0000000        1876.5646973       -8.5646972656    
 2964-48-300     1788.0000000        1812.5954590       -24.595458984    
 2964-55-321     1815.0000000        1814.9832764       1.67236328125E-02
 2964-60-313     1823.0000000        1814.5339355        8.4660644531    
 2964-65-364     1827.0000000        1832.7641602       -5.7641601562    
 2964-71-349     1835.0000000        1857.2700195       -22.270019531    
 2965-71-350     1956.0000000        1859.5980225        96.401977539    
 2985-17-5       1729.0000000        1790.7838135       -61.783813477    
 2985-56-24      1725.0000000        1736.0977783       -11.097778320    
 2985-61-56      1753.0000000        1742.5039062        10.496093750    
 2985-66-18      1803.0000000        1784.4761963        18.523803711    
 2913-56-23      1741.0000000        1717.2904053        23.709594727    
 2921-1-86       1806.0000000        1828.3750000       -22.375000000    
 2921-7-3        1801.0000000        1826.0823975       -25.082397461    
 2921-10-320     1794.0000000        1822.0352783       -28.035278320    
 2921-12-361     1787.0000000        1813.3852539       -26.385253906    
 2938-56-26      1732.0000000        1743.2564697       -11.256469727    
 2938-61-59      1755.0000000        1749.8372803        5.1627197266    
 2938-66-20      1805.0000000        1788.6651611        16.334838867    
 2935-22-34      1724.0000000        1768.7088623       -44.708862305    
 2935-27-20      1702.0000000        1746.5501709       -44.550170898    
 2935-56-24      1723.0000000        1735.9916992       -12.991699219    
 2935-61-56      1746.0000000        1741.7858887        4.2141113281    
 2935-66-19      1797.0000000        1775.4461670        21.553833008    
 2943-48-275     1710.0000000        1750.1567383       -40.156738281    
 2944-48-275     1707.0000000        1752.9069824       -45.906982422    
 2936-56-24      1826.0000000        1809.6188965        16.381103516    
 2936-61-55      1834.0000000        1812.2117920        21.788208008    
 2937-17-5       1815.0000000        1842.0651855       -27.065185547    
 2937-22-34      1798.0000000        1822.1849365       -24.184936523    
 2937-32-85      1767.0000000        1798.7160645       -31.716064453    
 2937-42-349     1749.0000000        1782.2181396       -33.218139648    
 2937-48-341     1779.0000000        1784.4906006       -5.4906005859    
 2937-56-24      1805.0000000        1792.4550781        12.544921875    
 2937-65-302     1818.0000000        1818.8417969      -0.84179687500    
 2915-12-6       1856.0000000        1876.2282715       -20.228271484    
 2915-17-5       1829.0000000        1860.4793701       -31.479370117    
 2915-56-24      1818.0000000        1808.2580566        9.7419433594    
 2915-61-56      1828.0000000        1811.6894531        16.310546875    
 2915-66-19      1834.0000000        1828.9549561        5.0450439453    
 2863-48-275     1773.0000000        1743.5766602        29.423339844    
 2864-48-275     1775.0000000        1747.7847900        27.215209961    
 2885-17-5       1811.0000000        1812.4564209       -1.4564208984    
 2885-56-24      1794.0000000        1750.3529053        43.647094727    
 2885-61-56      1810.0000000        1756.3178711        53.682128906    
 2867-17-6       1763.0000000        1802.7067871       -39.706787109    
 2867-21-335     1730.0000000        1776.9771729       -46.977172852    
 2867-56-24      1732.0000000        1737.6694336       -5.6694335938    
 2867-61-56      1751.0000000        1743.3889160        7.6110839844    
 2867-66-19      1792.0000000        1768.3480225        23.651977539    
 2887-56-24      1732.0000000        1728.4232178        3.5767822266    
 2887-66-19      1779.0000000        1753.4915771        25.508422852    
 2886-17-6       1759.0000000        1796.6348877       -37.634887695    
 2886-56-24      1727.0000000        1729.9145508       -2.9145507812    
 2886-61-56      1748.0000000        1734.0725098        13.927490234    
 2886-66-27      1789.0000000        1757.1118164        31.888183594    
 2850-1-86       1825.0000000        1838.4060059       -13.406005859    
 2850-7-4        1820.0000000        1832.7941895       -12.794189453    
 2850-12-361     1812.0000000        1825.9521484       -13.952148438    
 2837-12-284     1798.0000000        1827.6258545       -29.625854492    
 2837-16-354     1759.0000000        1798.6695557       -39.669555664    
 2837-22-34      1730.0000000        1769.3186035       -39.318603516    
 2837-32-85      1685.0000000        1722.1549072       -37.154907227    
 2837-37-34      1676.0000000        1712.1025391       -36.102539062    
 2837-42-349     1690.0000000        1704.2186279       -14.218627930    
 2837-48-341     1709.0000000        1716.0725098       -7.0725097656    
 2837-56-24      1730.0000000        1729.8920898       0.10791015625    
 2837-60-319     1750.0000000        1733.5207520        16.479248047    
 2837-65-298     1789.0000000        1752.7395020        36.260498047    
 2837-71-11      1802.0000000        1778.8204346        23.179565430    
 2837-71-365     1807.0000000        1782.1417236        24.858276367    
 2818-17-6       1760.0000000        1800.8336182       -40.833618164    
 2818-56-24      1738.0000000        1730.1696777        7.8303222656    
 2818-61-52      1757.0000000        1734.1339111        22.866088867    
 2818-66-25      1793.0000000        1751.6346436        41.365356445    
 2800-48-348     1708.0000000        1718.4628906       -10.462890625    
 2800-55-355     1729.0000000        1730.5516357       -1.5516357422    
 2800-61-7       1747.0000000        1734.6221924        12.377807617    
 2800-65-341     1780.0000000        1749.8222656        30.177734375    
 2800-71-50      1796.0000000        1773.1143799        22.885620117    
 2800-71-365     1797.0000000        1776.0754395        20.924560547    
 2786-56-24      1730.0000000        1730.9953613      -0.99536132812    
 2786-61-52      1745.0000000        1735.0361328        9.9638671875    
 2786-66-25      1781.0000000        1750.0832520        30.916748047    
 2770-1-86       1835.0000000        1846.6827393       -11.682739258    
 2770-7-4        1831.0000000        1843.2694092       -12.269409180    
 2770-12-361     1826.0000000        1835.5660400       -9.5660400391    
 2744-56-24      1736.0000000        1732.0260010        3.9739990234    
 2740-56-24      1735.0000000        1731.9229736        3.0770263672    
 2741-17-6       1783.0000000        1810.7438965       -27.743896484    
 2694-1-86       1871.0000000        1854.6400146        16.359985352    
 2694-5-67       1870.0000000        1852.8049316        17.195068359    
 2643-2-60       1888.0000000        1880.8116455        7.1883544922    
 2643-6-284      1886.0000000        1880.1900635        5.8099365234    
 2643-11-275     1876.0000000        1878.8142090       -2.8142089844    
 2933-56-23      1728.0000000        1717.2050781        10.794921875    
 2851-16-354     1770.0000000        1795.8800049       -25.880004883    
 2851-65-341     1790.0000000        1740.0427246        49.957275391    
 2851-71-50      1799.0000000        1764.9715576        34.028442383    
 2851-71-365     1799.0000000        1767.9862061        31.013793945    
 2854-65-341     1784.0000000        1743.0472412        40.952758789    
 2854-71-50      1797.0000000        1767.8317871        29.168212891    
 2854-71-365     1798.0000000        1770.7614746        27.238525391    
 2796-61-52      1752.0000000        1733.7202148        18.279785156    
 2796-66-33      1772.0000000        1746.6153564        25.384643555    
 2712-42-351     1745.0000000        1717.5942383        27.405761719    
 2712-48-348     1750.0000000        1729.9188232        20.081176758    
 2712-56-27      1756.0000000        1741.4407959        14.559204102    
 2712-61-7       1758.0000000        1746.3071289        11.692871094    
 2712-66-55      1770.0000000        1753.4860840        16.513916016    
 2712-71-365     1778.0000000        1770.0202637        7.9797363281    
 2709-55-355     1767.0000000        1751.4412842        15.558715820    
 2709-61-7       1781.0000000        1756.4110107        24.588989258    
 2709-65-341     1781.0000000        1761.0661621        19.933837891    
 2709-71-365     1785.0000000        1775.1091309        9.8908691406    
 2702-42-351     1782.0000000        1718.1348877        63.865112305    
 2702-48-348     1773.0000000        1729.5205078        43.479492188    
 2702-56-27      1770.0000000        1741.0531006        28.946899414    
 2702-61-7       1770.0000000        1745.8286133        24.171386719    
 2702-65-341     1777.0000000        1753.2141113        23.785888672    
 2702-71-365     1790.0000000        1770.5637207        19.436279297    
 2711-39-335     1752.0000000        1719.8251953        32.174804688    
 2711-56-26      1755.0000000        1740.7359619        14.264038086    
 2711-61-7       1757.0000000        1745.4742432        11.525756836    
 2711-65-341     1768.0000000        1753.2774658        14.722534180    
 2711-71-365     1779.0000000        1771.1638184        7.8361816406    
 2713-42-351     1746.0000000        1716.2954102        29.704589844    
 2713-56-26      1755.0000000        1739.4197998        15.580200195    
 2713-61-7       1756.0000000        1744.0925293        11.907470703    
 2713-65-341     1770.0000000        1752.4046631        17.595336914    
 2713-71-365     1780.0000000        1771.1538086        8.8461914062    
 2682-56-23      1758.0000000        1737.7589111        20.241088867    
 2682-61-53      1756.0000000        1740.4830322        15.516967773    
 2682-66-28      1763.0000000        1749.2884521        13.711547852    
 2866-12-332     1810.0000000        1821.7103271       -11.710327148    
 2866-17-6       1764.0000000        1795.7652588       -31.765258789    
 2998-43-6       2076.0000000        2058.1074219        17.892578125    
 3416-56-26      1932.0000000        1885.0157471        46.984252930    
 3416-61-55      1926.0000000        1876.9055176        49.094482422    
 3416-66-19      1911.0000000        1880.1365967        30.863403320    
 2986-8-305      1907.0000000        1916.1202393       -9.1202392578    
 2960-1-365      1941.0000000        1936.5072021        4.4927978516    
 2961-56-25      1958.0000000        1901.6336670        56.366333008    
 2961-61-59      1947.0000000        1893.2053223        53.794677734    
 2961-66-19      1917.0000000        1893.9284668        23.071533203    
 2957-56-25      1965.0000000        1909.2978516        55.702148438    
 2957-61-59      1978.0000000        1900.1187744        77.881225586    
 2988-1-51       1886.0000000        1898.3612061       -12.361206055    
 2984-8-213      1873.0000000        1895.4237061       -22.423706055    
 2971-7-60       1916.0000000        1922.3087158       -6.3087158203    
 2969-56-25      1917.0000000        1855.8326416        61.167358398    
 2969-61-55      1914.0000000        1850.5375977        63.462402344    
 2969-66-19      1855.0000000        1859.2053223       -4.2053222656    
 2976-56-25      1862.0000000        1847.7349854        14.265014648    
 2976-61-55      1862.0000000        1843.1591797        18.840820312    
 2976-66-19      1846.0000000        1853.3106689       -7.3106689453    
 2972-56-25      1858.0000000        1845.9957275        12.004272461    
 2972-66-19      1844.0000000        1852.6557617       -8.6557617188    
 2919-21-335     1807.0000000        1844.4865723       -37.486572266    
 2946-56-25      1956.0000000        1908.0629883        47.937011719    
 2946-66-19      1917.0000000        1899.5548096        17.445190430    
 2927-22-17      1953.0000000        1952.5227051       0.47729492188    
 2927-27-32      1950.0000000        1947.5883789        2.4116210938    
 2955-8-276      1884.0000000        1928.4874268       -44.487426758    
 2955-12-40      1882.0000000        1923.8005371       -41.800537109    
 2955-17-1       1870.0000000        1917.6357422       -47.635742188    
 2955-27-32      1849.0000000        1899.7155762       -50.715576172    
 2955-32-12      1857.0000000        1893.3394775       -36.339477539    
 2955-37-1       1849.0000000        1882.6387939       -33.638793945    
 2926-56-26      1971.0000000        1925.3907471        45.609252930    
 2926-61-59      1956.0000000        1916.9366455        39.063354492    
 2942-1-365      1980.0000000        1994.8270264       -14.827026367    
 2916-56-25      1981.0000000        1937.6208496        43.379150391    
 2916-61-59      1963.0000000        1927.9200439        35.079956055    
 2916-66-20      1933.0000000        1922.5689697        10.431030273    
 2941-42-364     2010.0000000        2003.1627197        6.8372802734    
 2941-48-335     2013.0000000        1996.4733887        16.526611328    
 2941-56-23      2015.0000000        1983.5313721        31.468627930    
 2941-61-59      2009.0000000        1970.2377930        38.762207031    
 2941-66-26      2003.0000000        1961.1143799        41.885620117    
 2941-71-54      1985.0000000        1958.5371094        26.462890625    
 3185-34-152     2050.0000000        2047.1364746        2.8635253906    
 2925-42-364     2042.0000000        2019.8358154        22.164184570    
 2925-48-335     2045.0000000        2012.8973389        32.102661133    
 2925-56-23      2044.0000000        1999.0294189        44.970581055    
 2925-66-26      2024.0000000        1974.8729248        49.127075195    
 2925-71-54      2018.0000000        1970.4571533        47.542846680    
 2954-42-363     2095.0000000        2053.2109375        41.789062500    
 2954-56-23      2088.0000000        2031.8905029        56.109497070    
 2954-61-59      2078.0000000        2020.2722168        57.727783203    
 2954-66-27      2077.0000000        2009.6768799        67.323120117    
 2889-42-364     2041.0000000        2035.2116699        5.7883300781    
 2889-48-336     2056.0000000        2028.0572510        27.942749023    
 2889-56-24      2053.0000000        2013.2053223        39.794677734    
 2880-22-18      2092.0000000        2081.2531738        10.746826172    
 2880-27-32      2088.0000000        2075.5627441        12.437255859    
 2880-38-1       2076.0000000        2060.9133301        15.086669922    
 2880-42-363     2076.0000000        2052.2011719        23.798828125    
 2893-1-274      2091.0000000        2076.8923340        14.107666016    
 2893-4-279      2087.0000000        2073.3918457        13.608154297    
 2893-5-285      2084.0000000        2072.5349121        11.465087891    
 2893-12-46      2075.0000000        2064.5710449        10.428955078    
 2893-17-19      2069.0000000        2061.9658203        7.0341796875    
 2893-22-1       2063.0000000        2061.6618652        1.3381347656    
 2893-27-32      2062.0000000        2055.9772949        6.0227050781    
 2893-32-14      2062.0000000        2053.1296387        8.8703613281    
 2893-38-1       2055.0000000        2040.0627441        14.937255859    
 2896-42-363     2024.0000000        2015.8894043        8.1105957031    
 2853-42-364     2049.0000000        2037.2662354        11.733764648    
 2853-48-336     2053.0000000        2029.9046631        23.095336914    
 2853-56-24      2052.0000000        2014.7244873        37.275512695    
 2853-61-59      2043.0000000        1999.5377197        43.462280273    
 2853-66-27      2025.0000000        1985.8831787        39.116821289    
 2853-71-55      2016.0000000        1982.0778809        33.922119141    
 2858-42-363     1992.0000000        2000.7498779       -8.7498779297    
 2858-48-336     2008.0000000        1995.0257568        12.974243164    
 2858-56-24      2017.0000000        1981.9636230        35.036376953    
 2858-61-59      2004.0000000        1968.5157471        35.484252930    
 2858-66-27      1969.0000000        1954.5960693        14.403930664    
 2858-71-62      1974.0000000        1958.4299316        15.570068359    
 2904-2-1        2009.0000000        2017.4760742       -8.4760742188    
 2892-1-360      2007.0000000        2020.7684326       -13.768432617    
 2892-7-65       1995.0000000        2009.0533447       -14.053344727    
 2892-11-334     1988.0000000        2006.1285400       -18.128540039    
 2892-16-318     1984.0000000        2007.3759766       -23.375976562    
 2892-22-34      1982.0000000        2002.4085693       -20.408569336    
 2892-27-32      1986.0000000        1998.3566895       -12.356689453    
 2892-31-351     1982.0000000        1990.8879395       -8.8879394531    
 2892-36-50      1996.0000000        1977.8204346        18.179565430    
 2909-56-25      1986.0000000        1945.2434082        40.756591797    
 2909-61-59      1960.0000000        1935.2276611        24.772338867    
 2909-66-19      1938.0000000        1928.3039551        9.6960449219    
 2911-56-25      1984.0000000        1943.7869873        40.213012695    
 2911-61-59      1964.0000000        1933.9420166        30.057983398    
 2911-66-19      1937.0000000        1927.3059082        9.6940917969    
 2884-66-32      1943.0000000        1934.1909180        8.8090820312    
 2865-8-91       1980.0000000        2006.2081299       -26.208129883    
 2865-48-342     1982.0000000        1964.1198730        17.880126953    
 2848-66-32      1961.0000000        1947.8291016        13.170898438    
 2881-48-342     1981.0000000        1960.6048584        20.395141602    
 2859-8-121      1997.0000000        2006.7111816       -9.7111816406    
 2871-56-24      1811.0000000        1785.4465332        25.553466797    
 2871-61-59      1816.0000000        1799.5216064        16.478393555    
 2871-66-27      1823.0000000        1814.9031982        8.0968017578    
 2811-17-6       1836.0000000        1855.3858643       -19.385864258    
 2811-22-34      1823.0000000        1838.4477539       -15.447753906    
 2811-56-24      1832.0000000        1780.8216553        51.178344727    
 2811-61-59      1835.0000000        1795.7364502        39.263549805    
 2834-48-342     1994.0000000        1970.2619629        23.738037109    
 2835-48-342     1994.0000000        1971.3264160        22.673583984    
 2835-56-24      2006.0000000        1956.3542480        49.645751953    
 2849-42-363     1982.0000000        1988.7297363       -6.7297363281    
 2849-48-336     2003.0000000        1984.8594971        18.140502930    
 2828-55-343     2013.0000000        1975.1096191        37.890380859    
 2828-61-38      2000.0000000        1962.5617676        37.438232422    
 2828-66-55      1961.0000000        1947.9810791        13.018920898    
 2828-71-365     1963.0000000        1951.4084473        11.591552734    
 2846-8-32       2008.0000000        2020.5375977       -12.537597656    
 2847-56-24      2005.0000000        1959.0063477        45.993652344    
 2833-1-283      2018.0000000        2037.3034668       -19.303466797    
 2821-43-27      1983.0000000        1997.5980225       -14.598022461    
 2821-48-334     1999.0000000        1985.4471436        13.552856445    
 2821-56-23      2011.0000000        1971.5483398        39.451660156    
 2821-61-54      1994.0000000        1960.6538086        33.346191406    
 2821-66-13      1953.0000000        1942.7414551        10.258544922    
 2817-1-364      2034.0000000        2049.1428223       -15.142822266    
 2805-48-334     2001.0000000        1990.1058350        10.894165039    
 2805-56-23      2012.0000000        1976.1190186        35.880981445    
 2805-61-53      1994.0000000        1964.6534424        29.346557617    
 2805-66-20      1954.0000000        1946.8507080        7.1492919922    
 2798-8-32       2025.0000000        2046.9768066       -21.976806641    
 2792-48-334     2008.0000000        2000.8271484        7.1728515625    
 2792-56-23      2019.0000000        1986.1140137        32.885986328    
 2792-61-53      2001.0000000        1973.3524170        27.647583008    
 2792-66-20      1972.0000000        1955.6188965        16.381103516    
 2820-3-338      2046.0000000        2057.5144043       -11.514404297    
 2820-6-224      2047.0000000        2057.7282715       -10.728271484    
 2820-7-11       2038.0000000        2057.0400391       -19.040039062    
 2820-12-46      2037.0000000        2050.6347656       -13.634765625    
 2820-17-19      2033.0000000        2051.5263672       -18.526367188    
 2820-22-17      2029.0000000        2050.0422363       -21.042236328    
 2820-27-32      2035.0000000        2044.2385254       -9.2385253906    
 2820-31-351     2032.0000000        2038.8294678       -6.8294677734    
 2820-37-28      2030.0000000        2024.5565186        5.4434814453    
 2820-48-334     2020.0000000        2006.9505615        13.049438477    
 2820-56-23      2034.0000000        1993.2443848        40.755615234    
 2820-60-319     2016.0000000        1978.9193115        37.080688477    
 2820-65-299     1978.0000000        1963.1560059        14.843994141    
 2820-71-365     1985.0000000        1964.2448730        20.755126953    
 2802-48-334     2023.0000000        2005.2034912        17.796508789    
 2802-56-23      2039.0000000        1994.0026855        44.997314453    
 2802-61-53      2020.0000000        1981.0979004        38.902099609    
 2802-66-20      2007.0000000        1963.9509277        43.049072266    
 2795-17-19      2040.0000000        2059.5646973       -19.564697266    
 2795-22-17      2037.0000000        2057.1228027       -20.122802734    
 2795-32-13      2041.0000000        2047.0379639       -6.0379638672    
 2795-37-345     2028.0000000        2030.1618652       -2.1618652344    
 2795-49-5       2031.0000000        2011.9680176        19.031982422    
 2795-55-343     2037.0000000        1998.2882080        38.711791992    
 2795-71-365     1992.0000000        1967.4361572        24.563842773    
 2722-61-53      2062.0000000        2015.8929443        46.107055664    
 2723-61-53      2064.0000000        2015.1647949        48.835205078    
 2723-66-20      2037.0000000        1996.8248291        40.175170898    
 2715-48-335     2064.0000000        2044.4562988        19.543701172    
 2715-56-23      2077.0000000        2030.3599854        46.640014648    
 2715-61-53      2059.0000000        2014.7011719        44.298828125    
 2715-66-20      2034.0000000        1995.9296875        38.070312500    
 2754-1-365      2084.0000000        2096.2392578       -12.239257812    
 2764-48-334     2045.0000000        2024.4382324        20.561767578    
 2764-56-23      2057.0000000        2009.9871826        47.012817383    
 2764-61-53      2040.0000000        1995.6822510        44.317749023    
 2764-66-20      2012.0000000        1978.3304443        33.669555664    
 2732-48-335     2047.0000000        2027.7747803        19.225219727    
 2732-56-20      2062.0000000        2013.2691650        48.730834961    
 2739-1-360      2087.0000000        2100.3520508       -13.352050781    
 2736-8-32       2077.0000000        2087.3759766       -10.375976562    
 2724-48-334     2054.0000000        2036.0465088        17.953491211    
 2724-56-23      2067.0000000        2021.8082275        45.191772461    
 2724-61-53      2053.0000000        2007.3796387        45.620361328    
 2724-66-20      2027.0000000        1988.8616943        38.138305664    
 2737-42-363     2008.0000000        2022.6656494       -14.665649414    
 2717-2-1        2069.0000000        2084.5529785       -15.552978516    
 2716-8-32       2057.0000000        2076.3703613       -19.370361328    
 2727-11-121     2014.0000000        2047.9262695       -33.926269531    
 2789-12-271     1861.0000000        1870.0472412       -9.0472412109    
 2696-1-364      2056.0000000        2081.1721191       -25.172119141    
 2696-6-341      2041.0000000        2074.1269531       -33.126953125    
 2696-11-334     2035.0000000        2065.6157227       -30.615722656    
 2696-16-313     2031.0000000        2065.1701660       -34.170166016    
 2696-22-34      2031.0000000        2062.5473633       -31.547363281    
 2708-48-337     1999.0000000        2019.1665039       -20.166503906    
 2708-56-19      1995.0000000        2005.1545410       -10.154541016    
 2708-66-28      1983.0000000        1973.6917725        9.3082275391    
 2701-32-43      2047.0000000        2062.5539551       -15.553955078    
 2701-42-363     2029.0000000        2036.1530762       -7.1530761719    
 2701-56-19      2055.0000000        2012.4289551        42.571044922    
 2668-42-363     2099.0000000        2049.0744629        49.925537109    
 2668-56-19      2095.0000000        2024.5338135        70.466186523    
 2668-61-52      2091.0000000        2008.3406982        82.659301758    
 2668-66-35      2087.0000000        1992.1585693        94.841430664    
 2681-8-32       2095.0000000        2109.3034668       -14.303466797    
 2678-48-335     2074.0000000        2051.4716797        22.528320312    
 2678-56-23      2096.0000000        2036.0535889        59.946411133    
 2678-61-54      2071.0000000        2020.2937012        50.706298828    
 2678-66-20      2046.0000000        2000.9561768        45.043823242    
 2690-66-55      2036.0000000        1989.1831055        46.816894531    
 2692-2-1        2090.0000000        2101.3688965       -11.368896484    
 2676-43-27      2084.0000000        2082.5239258        1.4760742188    
 2676-48-335     2082.0000000        2071.5725098        10.427490234    
 2676-56-23      2090.0000000        2052.4753418        37.524658203    
 2676-61-53      2073.0000000        2033.6878662        39.312133789    
 2676-66-13      2057.0000000        2015.1192627        41.880737305    
 2705-48-335     2072.0000000        2055.5590820        16.440917969    
 2705-56-23      2084.0000000        2038.2547607        45.745239258    
 2705-61-54      2067.0000000        2022.4353027        44.564697266    
 2705-66-18      2041.0000000        2002.8323975        38.167602539    
 2707-43-27      2068.0000000        2058.9743652        9.0256347656    
 2707-48-335     2067.0000000        2050.7663574        16.233642578    
 2707-56-23      2080.0000000        2035.2717285        44.728271484    
 2707-61-53      2062.0000000        2019.2542725        42.745727539    
 2707-66-20      2036.0000000        2000.1051025        35.894897461    
 2689-48-335     2068.0000000        2050.7868652        17.213134766    
 2689-56-20      2084.0000000        2034.5517578        49.448242188    
 2656-43-27      2089.0000000        2077.7292480        11.270751953    
 2656-48-334     2086.0000000        2067.8466797        18.153320312    
 2656-56-23      2110.0000000        2050.5126953        59.487304688    
 2656-61-53      2083.0000000        2033.3314209        49.668579102    
 2656-66-20      2058.0000000        2014.1944580        43.805541992    
 2674-33-76      2097.0000000        2103.6442871       -6.6442871094    
 2973-56-19      2361.0000000        2351.6293945        9.3706054688    
 2973-66-32      2345.0000000        2322.5808105        22.419189453    
 2973-71-56      2326.0000000        2310.2692871        15.730712891    
 2977-38-91      2353.0000000        2368.9748535       -15.974853516    
 2977-43-6       2361.0000000        2365.7827148       -4.7827148438    
 2977-48-335     2303.0000000        2364.7834473       -61.783447266    
 2977-66-32      2340.0000000        2325.8935547        14.106445312    
 2991-42-362     2218.0000000        2222.9968262       -4.9968261719    
 2991-48-334     2217.0000000        2218.7385254       -1.7385253906    
 2991-56-27      2215.0000000        2211.1914062        3.8085937500    
 2991-61-59      2212.0000000        2203.4094238        8.5905761719    
 2991-66-25      2208.0000000        2194.6694336        13.330566406    
 2991-71-57      2201.0000000        2185.7919922        15.208007812    
 2966-42-362     2195.0000000        2196.9916992       -1.9916992188    
 2932-42-362     2079.0000000        2070.2800293        8.7199707031    
 2932-48-336     2078.0000000        2062.7531738        15.246826172    
 2932-56-24      2073.0000000        2047.4843750        25.515625000    
 2914-42-357     2126.0000000        2101.4152832        24.584716797    
 2914-48-365     2119.0000000        2092.5009766        26.499023438    
 2914-55-342     2106.0000000        2072.1679688        33.832031250    
 2914-61-38      2100.0000000        2058.0625000        41.937500000    
 2914-66-40      2091.0000000        2044.3793945        46.620605469    
 2914-71-335     2076.0000000        2030.1878662        45.812133789    
 2940-55-342     2119.0000000        2107.6994629        11.300537109    
 2917-42-365     2135.0000000        2139.0634766       -4.0634765625    
 2917-48-336     2132.0000000        2131.6069336       0.39306640625    
 2917-56-26      2119.0000000        2113.4829102        5.5170898438    
 2917-61-59      2102.0000000        2100.6782227        1.3217773438    
 2917-66-27      2108.0000000        2087.8962402        20.103759766    
 2917-71-55      2097.0000000        2075.4389648        21.561035156    
 2924-42-362     2164.0000000        2177.7602539       -13.760253906    
 2930-36-43      2337.0000000        2336.4450684       0.55493164062    
 2930-56-27      2345.0000000        2316.9440918        28.055908203    
 2930-66-33      2292.0000000        2281.5002441        10.499755859    
 2930-71-56      2273.0000000        2268.6286621        4.3713378906    
 2929-42-357     2414.0000000        2402.4858398        11.514160156    
 2929-48-355     2427.0000000        2401.0805664        25.919433594    
 2929-55-342     2428.0000000        2386.7675781        41.232421875    
 2929-60-362     2395.0000000        2367.5327148        27.467285156    
 2929-66-1       2345.0000000        2335.8356934        9.1643066406    
 2929-71-335     2323.0000000        2324.8964844       -1.8964843750    
 2888-43-6       2314.0000000        2306.7666016        7.2333984375    
 2888-48-334     2312.0000000        2297.7854004        14.214599609    
 2888-56-26      2312.0000000        2278.7854004        33.214599609    
 2888-66-32      2268.0000000        2245.4086914        22.591308594    
 2888-71-56      2248.0000000        2231.1879883        16.812011719    
 2856-32-84      2310.0000000        2301.5927734        8.4072265625    
 2852-43-5       2289.0000000        2300.4948730       -11.494873047    
 2852-56-19      2286.0000000        2279.1354980        6.8645019531    
 2852-66-35      2251.0000000        2248.7358398        2.2641601562    
 2852-71-56      2229.0000000        2233.0246582       -4.0246582031    
 2869-43-8       2322.0000000        2326.9619141       -4.9619140625    
 2869-48-334     2322.0000000        2323.2348633       -1.2348632812    
 2869-56-24      2325.0000000        2307.8464355        17.153564453    
 2899-42-362     2169.0000000        2190.3781738       -21.378173828    
 2899-48-338     2165.0000000        2185.1901855       -20.190185547    
 2903-33-257     2172.0000000        2190.2114258       -18.211425781    
 2908-42-357     2149.0000000        2165.0734863       -16.073486328    
 2908-48-356     2145.0000000        2158.4943848       -13.494384766    
 2908-55-342     2130.0000000        2140.0192871       -10.019287109    
 2908-66-26      2118.0000000        2113.2802734        4.7197265625    
 2908-71-335     2103.0000000        2098.7912598        4.2087402344    
 2879-55-342     2098.0000000        2067.8779297        30.122070312    
 2879-61-40      2094.0000000        2053.9035645        40.096435547    
 2879-66-19      2087.0000000        2040.8273926        46.172607422    
 2879-71-335     2071.0000000        2025.4237061        45.576293945    
 2878-66-26      2111.0000000        2084.2241211        26.775878906    
 2878-71-335     2094.0000000        2067.8618164        26.138183594    
 2897-1-274      2168.0000000        2135.5166016        32.483398438    
 2897-6-284      2163.0000000        2133.1813965        29.818603516    
 2898-11-34      2156.0000000        2126.9602051        29.039794922    
 2898-16-361     2147.0000000        2120.9987793        26.001220703    
 2898-37-33      2120.0000000        2105.9394531        14.060546875    
 2882-43-32      2090.0000000        2063.2778320        26.722167969    
 2882-48-365     2088.0000000        2055.8525391        32.147460938    
 2882-55-342     2079.0000000        2039.1373291        39.862670898    
 2882-61-38      2073.0000000        2024.4492188        48.550781250    
 2882-66-40      2061.0000000        2011.3701172        49.629882812    
 2882-71-335     2048.0000000        2002.3143311        45.685668945    
 2870-33-274     2085.0000000        2085.0385742      -3.85742187500E-02
 2862-33-135     2110.0000000        2099.1652832        10.834716797    
 2824-66-31      2077.0000000        2029.4276123        47.572387695    
 2824-71-54      2069.0000000        2019.4600830        49.539916992    
 2807-49-5       2134.0000000        2110.1813965        23.818603516    
 2807-55-342     2112.0000000        2086.6289062        25.371093750    
 2807-71-62      2078.0000000        2037.9877930        40.012207031    
 2797-71-62      2081.0000000        2054.2910156        26.708984375    
 2845-66-35      2167.0000000        2171.3967285       -4.3967285156    
 2845-71-62      2154.0000000        2156.3698730       -2.3698730469    
 2841-1-274      2225.0000000        2225.9541016      -0.95410156250    
 2841-6-284      2221.0000000        2224.6943359       -3.6943359375    
 2841-11-34      2216.0000000        2222.3715820       -6.3715820312    
 2841-16-361     2204.0000000        2217.1306152       -13.130615234    
 2841-38-91      2174.0000000        2195.6960449       -21.696044922    
 2841-39-91      2173.0000000        2193.9941406       -20.994140625    
 2841-42-364     2172.0000000        2191.5756836       -19.575683594    
 2841-48-336     2167.0000000        2183.5852051       -16.585205078    
 2815-56-24      2141.0000000        2117.9218750        23.078125000    
 2801-33-52      2182.0000000        2172.6674805        9.3325195312    
 2844-43-6       2206.0000000        2248.7390137       -42.739013672    
 2844-48-334     2200.0000000        2238.2214355       -38.221435547    
 2844-56-19      2197.0000000        2219.9541016       -22.954101562    
 2844-66-34      2189.0000000        2189.9992676      -0.99926757812    
 2844-71-61      2232.0000000        2175.7763672        56.223632812    
 2819-56-17      2213.0000000        2204.4433594        8.5566406250    
 2825-56-19      2187.0000000        2233.3269043       -46.326904297    
 2825-66-35      2215.0000000        2205.6796875        9.3203125000    
 2794-33-62      2149.0000000        2194.9267578       -45.926757812    
 2791-42-356     2195.0000000        2172.6120605        22.387939453    
 2791-48-337     2171.0000000        2165.6682129        5.3317871094    
 2791-61-61      2160.0000000        2123.6484375        36.351562500    
 2791-66-26      2146.0000000        2107.2175293        38.782470703    
 2806-42-356     2222.0000000        2211.0769043        10.923095703    
 2806-48-337     2214.0000000        2202.6293945        11.370605469    
 2840-43-5       2293.0000000        2318.3024902       -25.302490234    
 2840-48-334     2294.0000000        2314.7573242       -20.757324219    
 2840-56-19      2291.0000000        2299.3146973       -8.3146972656    
 2840-61-56      2278.0000000        2285.6010742       -7.6010742188    
 2840-66-32      2257.0000000        2268.9865723       -11.986572266    
 2827-66-32      2236.0000000        2224.3801270        11.619873047    
 2827-71-61      2213.0000000        2204.8317871        8.1682128906    
 2813-66-26      2210.0000000        2196.3583984        13.641601562    
 2813-71-323     2178.0000000        2168.9934082        9.0065917969    
 2814-42-357     2232.0000000        2237.0446777       -5.0446777344    
 2814-55-342     2222.0000000        2213.9926758        8.0073242188    
 2814-61-35      2215.0000000        2200.3859863        14.614013672    
 2814-66-26      2200.0000000        2187.6857910        12.314208984    
 2804-42-357     2231.0000000        2238.4484863       -7.4484863281    
 2804-55-342     2222.0000000        2214.5263672        7.4736328125    
 2804-61-35      2214.0000000        2199.9968262        14.003173828    
 2804-66-26      2199.0000000        2185.2236328        13.776367188    
 2812-42-335     2311.0000000        2283.9143066        27.085693359    
 2812-48-355     2307.0000000        2274.6345215        32.365478516    
 2812-55-342     2303.0000000        2265.3005371        37.699462891    
 2812-61-35      2295.0000000        2253.5249023        41.475097656    
 2812-71-323     2247.0000000        2216.6262207        30.373779297    
 2765-42-357     2207.0000000        2194.0166016        12.983398438    
 2765-48-355     2200.0000000        2173.0678711        26.932128906    
 2765-55-342     2197.0000000        2177.3503418        19.649658203    
 2765-61-35      2192.0000000        2166.0576172        25.942382812    
 2765-66-26      2180.0000000        2154.7009277        25.299072266    
 2765-71-323     2156.0000000        2128.9919434        27.008056641    
 2728-8-69       2235.0000000        2212.5920410        22.407958984    
 2719-42-357     2193.0000000        2156.0239258        36.976074219    
 2719-48-356     2188.0000000        2147.1970215        40.802978516    
 2719-55-343     2181.0000000        2126.2204590        54.779541016    
 2726-42-357     2200.0000000        2183.1245117        16.875488281    
 2726-48-355     2193.0000000        2171.6562500        21.343750000    
 2726-55-342     2190.0000000        2162.3605957        27.639404297    
 2726-61-35      2185.0000000        2149.1091309        35.890869141    
 2726-66-26      2173.0000000        2136.3647461        36.635253906    
 2726-71-323     2151.0000000        2112.2622070        38.737792969    
 2784-71-62      2079.0000000        2052.4104004        26.589599609    
 2730-56-24      2146.0000000        2112.6455078        33.354492188    
 2730-61-54      2138.0000000        2093.4392090        44.560791016    
 2730-66-18      2121.0000000        2075.6323242        45.367675781    
 2781-16-361     2176.0000000        2178.2797852       -2.2797851562    
 2782-17-7       2174.0000000        2173.5175781       0.48242187500    
 2782-71-62      2077.0000000        2047.6334229        29.366577148    
 2762-48-338     2121.0000000        2123.8737793       -2.8737792969    
 2785-56-23      2118.0000000        2097.0834961        20.916503906    
 2785-66-19      2086.0000000        2061.3828125        24.617187500    
 2757-56-24      2116.0000000        2094.0278320        21.972167969    
 2757-66-19      2086.0000000        2057.7416992        28.258300781    
 2763-56-24      2114.0000000        2089.3093262        24.690673828    
 2763-66-19      2080.0000000        2052.8786621        27.121337891    
 2729-56-24      2122.0000000        2088.0671387        33.932861328    
 2729-66-18      2088.0000000        2049.9907227        38.009277344    
 2720-16-298     2169.0000000        2167.2731934        1.7268066406    
 2720-22-31      2162.0000000        2163.3967285       -1.3967285156    
 2706-66-35      2088.0000000        2061.3835449        26.616455078    
 2710-56-24      2141.0000000        2100.0378418        40.962158203    
 2755-56-23      2094.0000000        2067.4887695        26.511230469    
 2755-61-54      2084.0000000        2048.3107910        35.689208984    
 2755-66-18      2074.0000000        2031.4390869        42.560913086    
 2735-1-365      2237.0000000        2151.6745605        85.325439453    
 2778-33-182     2092.0000000        2094.3950195       -2.3950195312    
 2759-34-121     2105.0000000        2101.1882324        3.8117675781    
 2738-66-26      2051.0000000        2013.5817871        37.418212891    
 2738-71-348     2053.0000000        2006.4910889        46.508911133    
 2733-10-280     2107.0000000        2136.0275879       -29.027587891    
 2733-22-19      2094.0000000        2126.6625977       -32.662597656    
 2733-42-362     2087.0000000        2094.1489258       -7.1489257812    
 2733-48-362     2085.0000000        2083.3620605        1.6379394531    
 2733-55-342     2082.0000000        2063.3522949        18.647705078    
 2733-61-38      2071.0000000        2043.5618896        27.438110352    
 2733-66-40      2050.0000000        2025.9825439        24.017456055    
 2733-71-348     2045.0000000        2016.3231201        28.676879883    
 2698-49-8       2085.0000000        2077.6894531        7.3105468750    
 2698-55-342     2092.0000000        2058.2231445        33.776855469    
 2698-61-10      2091.0000000        2038.2519531        52.748046875    
 2698-71-348     2053.0000000        2012.1839600        40.816040039    
 2665-42-362     2093.0000000        2093.2822266      -0.28222656250    
 2665-48-362     2091.0000000        2080.8757324        10.124267578    
 2665-55-342     2098.0000000        2061.9125977        36.087402344    
 2665-61-4       2086.0000000        2043.0325928        42.967407227    
 2665-66-26      2056.0000000        2023.6968994        32.303100586    
 2665-71-348     2061.0000000        2015.9392090        45.060791016    
 2664-1-360      2134.0000000        2154.0124512       -20.012451172    
 2664-6-341      2125.0000000        2149.3752441       -24.375244141    
 2662-42-362     2094.0000000        2103.4089355       -9.4089355469    
 2662-48-361     2091.0000000        2091.2968750      -0.29687500000    
 2662-55-342     2094.0000000        2069.0339355        24.966064453    
 2662-71-348     2057.0000000        2021.9027100        35.097290039    
 2659-55-342     2093.0000000        2069.0339355        23.966064453    
 2659-61-11      2063.0000000        2049.1447754        13.855224609    
 2659-66-26      2057.0000000        2030.6010742        26.398925781    
 2659-71-348     2060.0000000        2021.9027100        38.097290039    
 2658-1-92       2100.0000000        2163.9472656       -63.947265625    
 2742-17-3       2141.0000000        2153.4965820       -12.496582031    
 2742-22-1       2140.0000000        2149.6315918       -9.6315917969    
 2742-38-91      2123.0000000        2126.3527832       -3.3527832031    
 2742-56-24      2107.0000000        2082.6770020        24.322998047    
 2742-61-54      2093.0000000        2062.0354004        30.964599609    
 2742-66-31      2068.0000000        2043.9251709        24.074829102    
 2742-71-62      2064.0000000        2032.8969727        31.103027344    
 2683-42-362     2093.0000000        2104.7001953       -11.700195312    
 2683-48-362     2090.0000000        2092.7539062       -2.7539062500    
 2683-55-342     2081.0000000        2071.6533203        9.3466796875    
 2683-61-32      2079.0000000        2051.3366699        27.663330078    
 2683-66-40      2053.0000000        2032.7722168        20.227783203    
 2686-1-274      2157.0000000        2165.4924316       -8.4924316406    
 2686-6-283      2150.0000000        2161.4707031       -11.470703125    
 2686-10-280     2137.0000000        2152.4926758       -15.492675781    
 2666-1-274      2111.0000000        2158.9306641       -47.930664062    
 2666-6-283      2101.0000000        2154.3640137       -53.364013672    
 2670-17-3       2140.0000000        2156.3208008       -16.320800781    
 2670-22-31      2138.0000000        2151.9418945       -13.941894531    
 2670-31-351     2129.0000000        2143.1289062       -14.128906250    
 2670-36-50      2126.0000000        2135.5595703       -9.5595703125    
 2670-42-352     2116.0000000        2120.7365723       -4.7365722656    
 2670-56-24      2108.0000000        2086.4091797        21.590820312    
 2670-61-54      2091.0000000        2066.1091309        24.890869141    
 2670-66-33      2063.0000000        2047.2655029        15.734497070    
 2670-71-62      2070.0000000        2036.8410645        33.158935547    
 2703-36-244     2194.0000000        2186.8940430        7.1059570312    
 2703-48-355     2189.0000000        2168.6770020        20.322998047    
 2703-55-343     2184.0000000        2153.5434570        30.456542969    
 2703-61-35      2180.0000000        2140.1738281        39.826171875    
 2703-66-19      2178.0000000        2126.6704102        51.329589844    
 2703-71-323     2147.0000000        2103.7468262        43.253173828    
 2680-71-61      2159.0000000        2082.4172363        76.582763672    
 2704-42-335     2188.0000000        2155.8125000        32.187500000    
 2704-48-356     2184.0000000        2147.5068359        36.493164062    
 2672-42-356     2170.0000000        2149.0241699        20.975830078    
 2672-66-33      2154.0000000        2085.6191406        68.380859375    
 2672-71-63      2142.0000000        2072.4138184        69.586181641    
 2657-42-356     2158.0000000        2157.6123047       0.38769531250    
 2657-66-33      2152.0000000        2098.9206543        53.079345703    
 2685-42-356     2197.0000000        2166.1494141        30.850585938    
 2685-48-355     2193.0000000        2158.8828125        34.117187500    
 2685-55-343     2186.0000000        2139.8586426        46.141357422    
 2685-61-35      2183.0000000        2125.8332520        57.166748047    
 2685-66-26      2173.0000000        2110.6267090        62.373291016    
 2685-71-323     2154.0000000        2094.1772461        59.822753906    
 2983-16-361     2632.0000000        2578.1125488        53.887451172    
 2983-22-31      2610.0000000        2590.8359375        19.164062500    
 2983-27-11      2618.0000000        2602.0114746        15.988525391    
 2980-43-8       2567.0000000        2576.7006836       -9.7006835938    
 2980-48-334     2581.0000000        2572.3410645        8.6589355469    
 2980-56-24      2581.0000000        2563.9443359        17.055664062    
 2990-16-361     2525.0000000        2525.7971191      -0.79711914062    
 2990-48-337     2544.0000000        2547.0363770       -3.0363769531    
 2990-56-24      2562.0000000        2536.6225586        25.377441406    
 2956-2-85       2545.0000000        2504.3171387        40.682861328    
 2956-6-284      2530.0000000        2502.0976562        27.902343750    
 2956-12-261     2511.0000000        2502.8691406        8.1308593750    
 2956-16-133     2520.0000000        2504.5869141        15.413085938    
 2956-26-124     2513.0000000        2526.9050293       -13.905029297    
 2956-37-34      2520.0000000        2519.5837402       0.41625976562    
 2956-43-5       2537.0000000        2529.6081543        7.3918457031    
 2956-48-334     2551.0000000        2525.2014160        25.798583984    
 2956-56-27      2553.0000000        2515.4982910        37.501708984    
 2956-66-35      2495.0000000        2487.4995117        7.5004882812    
 2956-71-12      2500.0000000        2468.0524902        31.947509766    
 2956-71-365     2513.0000000        2464.3173828        48.682617188    
 2931-11-62      2429.0000000        2429.0871582      -8.71582031250E-02
 2931-16-361     2420.0000000        2431.0722656       -11.072265625    
 2931-22-31      2415.0000000        2437.8334961       -22.833496094    
 2635-56-25      1731.0000000        1752.5494385       -21.549438477    
 2595-16-355     1833.0000000        1843.0407715       -10.040771484    
 2595-48-349     1721.0000000        1750.0299072       -29.029907227    
 2595-55-355     1728.0000000        1760.8800049       -32.880004883    
 2595-61-4       1733.0000000        1764.2119141       -31.211914062    
 2595-66-47      1743.0000000        1767.4222412       -24.422241211    
 2595-71-5       1753.0000000        1771.3669434       -18.366943359    
 2595-71-365     1755.0000000        1774.5302734       -19.530273438    
 2594-48-350     1725.0000000        1752.2641602       -27.264160156    
 2594-55-355     1732.0000000        1763.3859863       -31.385986328    
 2594-66-47      1746.0000000        1769.3889160       -23.388916016    
 2594-71-5       1757.0000000        1773.3464355       -16.346435547    
 2594-71-365     1760.0000000        1776.4313965       -16.431396484    
 2599-66-47      1746.0000000        1768.0048828       -22.004882812    
 2599-71-5       1756.0000000        1771.7215576       -15.721557617    
 2599-71-365     1758.0000000        1774.6302490       -16.630249023    
 2596-42-351     1713.0000000        1727.6860352       -14.686035156    
 2596-48-349     1721.0000000        1749.5935059       -28.593505859    
 2596-55-355     1728.0000000        1759.7626953       -31.762695312    
 2596-61-4       1733.0000000        1762.5189209       -29.518920898    
 2596-66-34      1742.0000000        1766.1947021       -24.194702148    
 2596-71-5       1753.0000000        1769.9177246       -16.917724609    
 2596-71-365     1755.0000000        1773.0325928       -18.032592773    
 2591-56-3       1728.0000000        1758.9969482       -30.996948242    
 2591-61-4       1732.0000000        1761.9139404       -29.913940430    
 2591-66-34      1742.0000000        1765.8414307       -23.841430664    
 2591-71-5       1753.0000000        1769.6225586       -16.622558594    
 2591-71-365     1755.0000000        1772.7232666       -17.723266602    
 2588-42-351     1710.0000000        1728.0971680       -18.097167969    
 2588-48-349     1715.0000000        1746.7609863       -31.760986328    
 2588-55-355     1722.0000000        1757.5393066       -35.539306641    
 2588-61-4       1726.0000000        1760.5998535       -34.599853516    
 2588-66-47      1736.0000000        1764.7578125       -28.757812500    
 2588-71-4       1746.0000000        1768.2476807       -22.247680664    
 2588-71-365     1749.0000000        1770.7591553       -21.759155273    
 2564-12-171     1866.0000000        1875.4195557       -9.4195556641    
 2564-16-355     1833.0000000        1844.9873047       -11.987304688    
 2564-22-37      1807.0000000        1811.6784668       -4.6784667969    
 2530-42-351     1722.0000000        1735.4713135       -13.471313477    
 2530-48-349     1730.0000000        1755.5703125       -25.570312500    
 2530-55-355     1739.0000000        1767.7309570       -28.730957031    
 2530-61-6       1743.0000000        1772.3164062       -29.316406250    
 2530-66-47      1754.0000000        1775.2839355       -21.283935547    
 2530-71-5       1764.0000000        1777.9882812       -13.988281250    
 2530-71-365     1766.0000000        1780.8811035       -14.881103516    
 2529-17-6       1844.0000000        1855.1300049       -11.130004883    
 2529-56-24      1737.0000000        1771.4548340       -34.454833984    
 2529-61-52      1742.0000000        1776.3880615       -34.388061523    
 2529-66-19      1751.0000000        1778.7153320       -27.715332031    
 2587-1-105      1880.0000000        1881.5336914       -1.5336914062    
 2587-7-3        1880.0000000        1880.5067139      -0.50671386719    
 2449-32-85      1798.0000000        1796.7917480        1.2082519531    
 2492-48-349     1742.0000000        1777.3471680       -35.347167969    
 2492-61-4       1757.0000000        1792.1068115       -35.106811523    
 2492-66-39      1766.0000000        1789.3931885       -23.393188477    
 2492-71-6       1776.0000000        1790.2503662       -14.250366211    
 2492-71-365     1779.0000000        1793.3448486       -14.344848633    
 2491-56-3       1769.0000000        1787.4693604       -18.469360352    
 2491-61-6       1771.0000000        1791.7670898       -20.767089844    
 2491-66-39      1779.0000000        1788.8874512       -9.8874511719    
 2491-71-6       1788.0000000        1790.9648438       -2.9648437500    
 2491-71-365     1789.0000000        1794.0728760       -5.0728759766    
 2450-48-349     1771.0000000        1787.5988770       -16.598876953    
 2450-55-354     1777.0000000        1798.3331299       -21.333129883    
 2450-61-4       1779.0000000        1801.8066406       -22.806640625    
 2450-66-39      1785.0000000        1796.5750732       -11.575073242    
 2450-71-6       1795.0000000        1795.7978516      -0.79785156250    
 2450-71-365     1796.0000000        1798.5275879       -2.5275878906    
 2451-48-349     1763.0000000        1785.2908936       -22.290893555    
 2451-55-355     1771.0000000        1795.2678223       -24.267822266    
 2451-61-4       1774.0000000        1799.1973877       -25.197387695    
 2451-66-27      1778.0000000        1795.3098145       -17.309814453    
 2451-71-6       1788.0000000        1795.4302979       -7.4302978516    
 2451-71-365     1790.0000000        1798.5718994       -8.5718994141    
 2442-48-348     1728.0000000        1769.2460938       -41.246093750    
 2442-56-23      1738.0000000        1782.0941162       -44.094116211    
 2442-60-319     1740.0000000        1787.0913086       -47.091308594    
 2442-66-26      1748.0000000        1787.9096680       -39.909667969    
 2442-71-11      1762.0000000        1790.7332764       -28.733276367    
 2452-12-171     1883.0000000        1895.7392578       -12.739257812    
 2452-16-314     1834.0000000        1865.7138672       -31.713867188    
 2452-32-85      1756.0000000        1773.3172607       -17.317260742    
 2452-35-53      1745.0000000        1758.3388672       -13.338867188    
 2390-42-351     1719.0000000        1755.3717041       -36.371704102    
 2390-48-349     1727.0000000        1767.8714600       -40.871459961    
 2390-55-355     1736.0000000        1780.0627441       -44.062744141    
 2390-66-47      1751.0000000        1787.5875244       -36.587524414    
 2390-71-6       1762.0000000        1787.7673340       -25.767333984    
 2390-71-365     1764.0000000        1789.3685303       -25.368530273    
 2303-42-351     1724.0000000        1764.9764404       -40.976440430    
 2303-48-349     1730.0000000        1774.4774170       -44.477416992    
 2303-55-355     1738.0000000        1785.3601074       -47.360107422    
 2303-61-4       1743.0000000        1790.8323975       -47.832397461    
 2303-66-47      1752.0000000        1792.6623535       -40.662353516    
 2303-71-6       1763.0000000        1791.8793945       -28.879394531    
 2303-71-365     1765.0000000        1793.1640625       -28.164062500    
 2417-56-24      1738.0000000        1786.8967285       -48.896728516    
 2417-61-54      1743.0000000        1791.4259033       -48.425903320    
 2411-56-24      1738.0000000        1787.2014160       -49.201416016    
 2411-61-54      1743.0000000        1791.7116699       -48.711669922    
 2259-42-352     1727.0000000        1773.9194336       -46.919433594    
 2259-56-3       1745.0000000        1801.9647217       -56.964721680    
 2296-22-38      1830.0000000        1844.1091309       -14.109130859    
 2296-42-352     1741.0000000        1776.0256348       -35.025634766    
 2296-48-350     1751.0000000        1794.4893799       -43.489379883    
 2296-55-354     1759.0000000        1804.6519775       -45.651977539    
 2296-61-6       1764.0000000        1807.8597412       -43.859741211    
 2296-66-39      1772.0000000        1802.4539795       -30.453979492    
 2296-71-6       1781.0000000        1803.3787842       -22.378784180    
 2296-71-365     1782.0000000        1806.5408936       -24.540893555    
 2302-48-350     1777.0000000        1801.6584473       -24.658447266    
 2302-55-354     1777.0000000        1811.3018799       -34.301879883    
 2302-61-6       1789.0000000        1813.2653809       -24.265380859    
 2302-66-32      1790.0000000        1805.0678711       -15.067871094    
 2302-71-6       1799.0000000        1806.6242676       -7.6242675781    
 2302-71-365     1800.0000000        1810.0952148       -10.095214844    
 2301-37-33      1770.0000000        1783.4655762       -13.465576172    
 2301-42-352     1779.0000000        1789.5992432       -10.599243164    
 2301-48-349     1792.0000000        1806.2167969       -14.216796875    
 2301-55-354     1797.0000000        1815.8985596       -18.898559570    
 2301-66-1       1802.0000000        1807.7467041       -5.7467041016    
 2301-71-6       1809.0000000        1809.4144287      -0.41442871094    
 2301-71-365     1811.0000000        1813.0742188       -2.0742187500    
 2440-55-354     1790.0000000        1804.9920654       -14.992065430    
 2440-61-6       1793.0000000        1808.9542236       -15.954223633    
 2440-65-342     1796.0000000        1800.3848877       -4.3848876953    
 2440-71-6       1808.0000000        1803.4343262        4.5656738281    
 2440-71-365     1809.0000000        1806.9150391        2.0849609375    
 2300-16-354     1887.0000000        1881.7246094        5.2753906250    
 2300-48-350     1798.0000000        1814.2814941       -16.281494141    
 2300-55-355     1805.0000000        1823.7000732       -18.700073242    
 2300-61-6       1809.0000000        1825.0777588       -16.077758789    
 2300-65-341     1808.0000000        1811.9288330       -3.9288330078    
 2300-71-7       1820.0000000        1813.3902588        6.6097412109    
 2300-71-365     1820.0000000        1815.3582764        4.6417236328    
 2220-12-311     1928.0000000        1921.4084473        6.5915527344    
 2220-16-356     1891.0000000        1889.0643311        1.9356689453    
 2220-48-350     1810.0000000        1824.1641846       -14.164184570    
 2220-55-354     1812.0000000        1831.8398438       -19.839843750    
 2220-61-7       1815.0000000        1834.1164551       -19.116455078    
 2220-66-39      1812.0000000        1813.8184814       -1.8184814453    
 2220-71-7       1827.0000000        1822.8316650        4.1683349609    
 2220-71-365     1826.0000000        1827.2460938       -1.2460937500    
 2222-55-354     1806.0000000        1829.4265137       -23.426513672    
 2222-61-6       1815.0000000        1831.2945557       -16.294555664    
 2222-65-341     1809.0000000        1814.7257080       -5.7257080078    
 2222-71-7       1822.0000000        1821.1503906       0.84960937500    
 2222-71-365     1821.0000000        1825.4035645       -4.4035644531    
 2096-48-350     1816.0000000        1832.2705078       -16.270507812    
 2096-55-354     1818.0000000        1839.1715088       -21.171508789    
 2096-61-6       1824.0000000        1840.1550293       -16.155029297    
 2096-65-343     1814.0000000        1819.7636719       -5.7636718750    
 2096-71-7       1828.0000000        1828.3050537      -0.30505371094    
 2096-71-365     1827.0000000        1833.5227051       -6.5227050781    
 2089-12-171     1917.0000000        1925.8057861       -8.8057861328    
 2089-42-352     1788.0000000        1807.6068115       -19.606811523    
 2089-48-350     1796.0000000        1820.5010986       -24.501098633    
 2089-55-354     1801.0000000        1828.8901367       -27.890136719    
 2089-61-6       1803.0000000        1829.7539062       -26.753906250    
 2089-66-55      1803.0000000        1817.0863037       -14.086303711    
 2089-71-6       1809.0000000        1821.2614746       -12.261474609    
 2089-71-365     1810.0000000        1825.5196533       -15.519653320    
 2088-42-352     1799.0000000        1812.8740234       -13.874023438    
 2088-48-350     1807.0000000        1825.4986572       -18.498657227    
 2088-55-354     1811.0000000        1833.8334961       -22.833496094    
 2088-61-6       1813.0000000        1834.0861816       -21.086181641    
 2088-66-48      1811.0000000        1818.3737793       -7.3737792969    
 2088-71-6       1818.0000000        1824.8464355       -6.8464355469    
 2088-71-365     1819.0000000        1829.3123779       -10.312377930    
 2620-61-53      1751.0000000        1773.3237305       -22.323730469    
 2620-66-28      1754.0000000        1769.9692383       -15.969238281    
 2630-1-86       1889.0000000        1883.7207031        5.2792968750    
 2615-21-353     1856.0000000        1851.5467529        4.4532470703    
 2615-27-20      1833.0000000        1825.8890381        7.1109619141    
 2615-36-64      1802.0000000        1785.8013916        16.198608398    
 2615-42-350     1766.0000000        1767.2639160       -1.2639160156    
 2618-56-23      1750.0000000        1767.0946045       -17.094604492    
 2618-61-53      1751.0000000        1771.8469238       -20.846923828    
 2618-66-28      1753.0000000        1774.7406006       -21.740600586    
 2616-1-109      1890.0000000        1889.9385986       6.14013671875E-02
 2616-7-10       1889.0000000        1892.3284912       -3.3284912109    
 2616-10-319     1878.0000000        1891.2843018       -13.284301758    
 2607-56-23      1754.0000000        1776.6451416       -22.645141602    
 2607-61-53      1751.0000000        1780.9918213       -29.991821289    
 2607-66-28      1752.0000000        1780.6579590       -28.657958984    
 2578-2-305      1903.0000000        1892.2667236        10.733276367    
 2582-1-105      1898.0000000        1895.2012939        2.7987060547    
 2577-56-23      1757.0000000        1783.9476318       -26.947631836    
 2577-61-53      1758.0000000        1788.5260010       -30.526000977    
 2577-66-28      1760.0000000        1786.0853271       -26.085327148    
 2573-56-27      1759.0000000        1785.6225586       -26.622558594    
 2553-33-188     1780.0000000        1783.4136963       -3.4136962891    
 2553-56-27      1769.0000000        1787.6373291       -18.637329102    
 2574-1-107      1894.0000000        1898.1811523       -4.1811523438    
 2580-1-109      1894.0000000        1900.5100098       -6.5100097656    
 2571-21-354     1857.0000000        1861.3103027       -4.3103027344    
 2498-37-34      1812.0000000        1792.4019775        19.598022461    
 2498-42-350     1797.0000000        1785.0957031        11.904296875    
 2519-56-23      1776.0000000        1798.8978271       -22.897827148    
 2507-48-300     1781.0000000        1788.5487061       -7.5487060547    
 2507-55-318     1786.0000000        1798.8157959       -12.815795898    
 2507-60-313     1786.0000000        1803.2518311       -17.251831055    
 2507-65-364     1792.0000000        1797.1827393       -5.1827392578    
 2507-71-350     1807.0000000        1804.5980225        2.4019775391    
 2508-48-300     1780.0000000        1788.5487061       -8.5487060547    
 2508-55-318     1782.0000000        1798.8157959       -16.815795898    
 2508-60-313     1782.0000000        1803.2518311       -21.251831055    
 2508-65-364     1788.0000000        1797.1827393       -9.1827392578    
 2508-71-350     1808.0000000        1804.5980225        3.4019775391    
 2448-56-25      1795.0000000        1809.1215820       -14.121582031    
 2448-61-52      1799.0000000        1814.6696777       -15.669677734    
 2448-66-20      1803.0000000        1806.5280762       -3.5280761719    
 2311-56-23      1817.0000000        1830.1295166       -13.129516602    
 2311-61-53      1822.0000000        1835.4077148       -13.407714844    
 2311-66-28      1823.0000000        1818.4134521        4.5865478516    
 2084-2-305      1948.0000000        1948.0889893      -8.89892578125E-02
 2099-42-352     1819.0000000        1827.1680908       -8.1680908203    
 2099-48-365     1824.0000000        1838.5107422       -14.510742188    
 2099-55-354     1826.0000000        1843.2816162       -17.281616211    
 2099-61-7       1837.0000000        1845.4222412       -8.4222412109    
 2099-65-344     1824.0000000        1816.1087646        7.8912353516    
 2099-71-365     1840.0000000        1827.0181885        12.981811523    
 2087-71-365     1825.0000000        1813.7022705        11.297729492    
 2110-71-365     1844.0000000        1837.9564209        6.0435791016    
 2040-65-364     1850.0000000        1798.4632568        51.536743164    
 2040-71-365     1864.0000000        1814.5313721        49.468627930    
 2034-65-364     1830.0000000        1824.3031006        5.6968994141    
 2034-71-12      1876.0000000        1848.0249023        27.975097656    
 2034-71-365     1838.0000000        1851.9616699       -13.961669922    
 2009-71-8       1870.0000000        1848.9099121        21.090087891    
 2009-71-365     1858.0000000        1854.4106445        3.5893554688    
 2008-71-8       1845.0000000        1842.7270508        2.2729492188    
 2008-71-365     1838.0000000        1847.8007812       -9.8007812500    
 1923-16-315     1894.0000000        1921.8020020       -27.802001953    
 1923-22-38      1884.0000000        1892.0954590       -8.0954589844    
 1923-27-24      1863.0000000        1868.5732422       -5.5732421875    
 1923-32-85      1840.0000000        1849.6873779       -9.6873779297    
 1923-36-1       1840.0000000        1840.2578125      -0.25781250000    
 1923-42-352     1841.0000000        1847.9515381       -6.9515380859    
 1923-48-348     1841.0000000        1855.3723145       -14.372314453    
 1923-55-354     1840.0000000        1860.3066406       -20.306640625    
 1923-60-323     1856.0000000        1861.8787842       -5.8787841797    
 1923-65-343     1828.0000000        1829.2407227       -1.2407226562    
 1923-71-8       1848.0000000        1855.1859131       -7.1859130859    
 1923-71-365     1844.0000000        1853.7130127       -9.7130126953    
 1914-55-354     1840.0000000        1862.5323486       -22.532348633    
 1914-61-7       1855.0000000        1862.6402588       -7.6402587891    
 1914-71-8       1848.0000000        1857.4534912       -9.4534912109    
 1919-71-8       1853.0000000        1853.6906738      -0.69067382812    
 1914-71-365     1844.0000000        1843.5958252       0.40417480469    
 1919-71-365     1847.0000000        1859.4395752       -12.439575195    
 1938-65-364     1848.0000000        1825.9742432        22.025756836    
 1960-65-364     1842.0000000        1822.7947998        19.205200195    
 1922-12-171     1950.0000000        1954.6644287       -4.6644287109    
 1922-42-352     1846.0000000        1852.0157471       -6.0157470703    
 1922-48-349     1847.0000000        1858.9425049       -11.942504883    
 1922-55-354     1846.0000000        1863.3210449       -17.321044922    
 1922-61-7       1873.0000000        1867.2893066        5.7106933594    
 1922-71-8       1884.0000000        1864.5354004        19.464599609    
 1922-71-365     1872.0000000        1848.4793701        23.520629883    
 1918-10-108     1955.0000000        1957.0311279       -2.0311279297    
 1918-66-32      1850.0000000        1830.0673828        19.932617188    
 1918-71-8       1881.0000000        1873.0692139        7.9307861328    
 1918-71-365     1866.0000000        1850.8696289        15.130371094    
 1959-71-8       1888.0000000        1861.3038330        26.696166992    
 1959-71-365     1873.0000000        1867.6323242        5.3676757812    
 1944-71-365     1882.0000000        1865.8900146        16.109985352    
 1988-35-4       1872.0000000        1864.4111328        7.5888671875    
 1908-56-18      1862.0000000        1881.7187500       -19.718750000    
 1908-66-18      1848.0000000        1870.6983643       -22.698364258    
 2638-33-46      2108.0000000        2105.3376465        2.6623535156    
 2648-35-95      2092.0000000        2094.9663086       -2.9663085938    
 2627-48-336     2088.0000000        2078.3190918        9.6809082031    
 2619-2-1        2145.0000000        2156.0710449       -11.071044922    
 2642-12-43      2100.0000000        2116.4484863       -16.448486328    
 2649-17-23      2099.0000000        2113.7214355       -14.721435547    
 2649-22-20      2098.0000000        2107.5891113       -9.5891113281    
 2649-42-363     2087.0000000        2074.0505371        12.949462891    
 2649-48-336     2084.0000000        2064.3803711        19.619628906    
 2649-56-20      2111.0000000        2047.6115723        63.388427734    
 2649-61-55      2081.0000000        2030.8231201        50.176879883    
 2628-1-365      2129.0000000        2132.0625000       -3.0625000000    
 2650-71-350     2071.0000000        2001.4320068        69.567993164    
 2655-42-362     2084.0000000        2066.7819824        17.218017578    
 2655-48-362     2083.0000000        2057.6555176        25.344482422    
 2655-55-343     2093.0000000        2042.5977783        50.402221680    
 2655-61-40      2080.0000000        2025.8132324        54.186767578    
 2655-66-55      2057.0000000        2007.9953613        49.004638672    
 2655-71-350     2061.0000000        2001.1715088        59.828491211    
 2604-61-55      2078.0000000        2043.1759033        34.824096680    
 2626-22-20      2106.0000000        2117.0009766       -11.000976562    
 2626-32-42      2110.0000000        2106.9479980        3.0520019531    
 2623-8-279      2109.0000000        2127.9953613       -18.995361328    
 2623-12-32      2110.0000000        2125.5368652       -15.536865234    
 2623-17-22      2109.0000000        2121.6638184       -12.663818359    
 2623-22-1       2104.0000000        2115.8342285       -11.834228516    
 2623-27-34      2113.0000000        2109.9011230        3.0988769531    
 2608-12-43      2113.0000000        2132.0815430       -19.081542969    
 2608-17-23      2111.0000000        2127.2751465       -16.275146484    
 2608-22-20      2105.0000000        2121.8586426       -16.858642578    
 2608-32-42      2110.0000000        2112.6384277       -2.6384277344    
 2629-3-217      2124.0000000        2116.0717773        7.9282226562    
 2606-56-26      2123.0000000        2055.5854492        67.414550781    
 2606-61-55      2120.0000000        2038.5175781        81.482421875    
 2606-66-20      2114.0000000        2023.7850342        90.214965820    
 2592-12-43      2137.0000000        2152.1142578       -15.114257812    
 2592-17-23      2133.0000000        2146.2478027       -13.247802734    
 2592-22-23      2125.0000000        2139.2971191       -14.297119141    
 2592-42-364     2123.0000000        2108.1074219        14.892578125    
 2592-48-336     2115.0000000        2097.3742676        17.625732422    
 2592-56-20      2137.0000000        2078.6442871        58.355712891    
 2592-61-55      2113.0000000        2060.4941406        52.505859375    
 2603-27-15      2121.0000000        2129.7819824       -8.7819824219    
 2603-42-362     2104.0000000        2103.8898926       0.11010742188    
 2603-48-336     2101.0000000        2093.1491699        7.8508300781    
 2603-55-343     2114.0000000        2075.2419434        38.758056641    
 2603-61-40      2099.0000000        2056.3977051        42.602294922    
 2603-65-343     2064.0000000        2037.9284668        26.071533203    
 2603-71-47      2078.0000000        2029.0692139        48.930786133    
 2603-71-350     2074.0000000        2027.9570312        46.042968750    
 2593-1-365      2142.0000000        2157.8044434       -15.804443359    
 2558-22-23      2120.0000000        2142.7277832       -22.727783203    
 2558-27-35      2127.0000000        2137.6528320       -10.652832031    
 2558-42-362     2113.0000000        2112.4304199       0.56958007812    
 2558-48-362     2109.0000000        2102.4853516        6.5146484375    
 2558-55-343     2119.0000000        2084.9533691        34.046630859    
 2558-61-40      2106.0000000        2066.6643066        39.335693359    
 2651-42-356     2169.0000000        2166.1818848        2.8181152344    
 2632-66-33      2145.0000000        2115.5659180        29.434082031    
 2632-71-63      2134.0000000        2102.6208496        31.379150391    
 2644-48-345     2173.0000000        2154.9313965        18.068603516    
 2644-71-63      2134.0000000        2094.8605957        39.139404297    
 2645-42-356     2172.0000000        2149.1354980        22.864501953    
 2645-48-345     2158.0000000        2141.2177734        16.782226562    
 2645-66-33      2144.0000000        2087.4394531        56.560546875    
 2645-71-63      2131.0000000        2074.9157715        56.084228516    
 2624-71-63      2130.0000000        2083.5515137        46.448486328    
 2609-42-365     2143.0000000        2149.1201172       -6.1201171875    
 2609-48-338     2138.0000000        2140.6833496       -2.6833496094    
 2609-56-24      2128.0000000        2120.4311523        7.5688476562    
 2609-61-54      2121.0000000        2105.1125488        15.887451172    
 2609-66-26      2103.0000000        2087.9467773        15.053222656    
 2609-71-62      2095.0000000        2076.0537109        18.946289062    
 2631-56-24      2101.0000000        2079.0014648        21.998535156    
 2631-61-54      2085.0000000        2060.5642090        24.435791016    
 2631-66-33      2058.0000000        2040.5927734        17.407226562    
 2652-17-24      2121.0000000        2145.2819824       -24.281982422    
 2652-22-19      2113.0000000        2139.2526855       -26.252685547    
 2652-27-33      2114.0000000        2132.8564453       -18.856445312    
 2652-42-362     2099.0000000        2108.7990723       -9.7990722656    
 2634-66-19      2059.0000000        2031.4907227        27.509277344    
 2633-56-23      2109.0000000        2071.2421875        37.757812500    
 2647-1-51       2132.0000000        2151.3146973       -19.314697266    
 2613-56-26      2121.0000000        2079.9221191        41.077880859    
 2622-11-34      2132.0000000        2159.0441895       -27.044189453    
 2622-17-3       2120.0000000        2151.8095703       -31.809570312    
 2622-22-25      2119.0000000        2146.0197754       -27.019775391    
 2622-27-11      2120.0000000        2139.9257812       -19.925781250    
 2622-32-46      2113.0000000        2137.5346680       -24.534667969    
 2625-42-362     2107.0000000        2114.3459473       -7.3459472656    
 2605-42-362     2114.0000000        2118.5446777       -4.5446777344    
 2605-48-362     2110.0000000        2107.0959473        2.9040527344    
 2605-55-343     2118.0000000        2086.9116211        31.088378906    
 2605-61-38      2104.0000000        2068.0524902        35.947509766    
 2605-66-49      2073.0000000        2048.3791504        24.620849609    
 2605-71-40      2077.0000000        2040.2471924        36.752807617    
 2605-71-350     2076.0000000        2038.9760742        37.023925781    
 2570-8-37       2157.0000000        2168.5983887       -11.598388672    
 2570-12-46      2145.0000000        2162.7817383       -17.781738281    
 2570-17-24      2139.0000000        2155.3417969       -16.341796875    
 2570-22-25      2125.0000000        2149.3193359       -24.319335938    
 2560-22-25      2127.0000000        2151.9230957       -24.923095703    
 2560-27-34      2126.0000000        2148.2319336       -22.231933594    
 2560-32-36      2126.0000000        2144.9018555       -18.901855469    
 2560-42-363     2116.0000000        2120.9655762       -4.9655761719    
 2545-56-20      2135.0000000        2098.3693848        36.630615234    
 2544-1-50       2178.0000000        2190.2890625       -12.289062500    
 2544-6-39       2167.0000000        2186.7839355       -19.783935547    
 2576-16-25      2150.0000000        2171.8608398       -21.860839844    
 2576-22-25      2142.0000000        2169.6186523       -27.618652344    
 2576-26-28      2140.0000000        2163.9606934       -23.960693359    
 2581-66-26      2077.0000000        2067.9169922        9.0830078125    
 2581-71-62      2076.0000000        2057.4929199        18.507080078    
 2600-17-24      2133.0000000        2163.9228516       -30.922851562    
 2600-22-25      2127.0000000        2159.2478027       -32.247802734    
 2600-27-54      2129.0000000        2154.3701172       -25.370117188    
 2600-32-36      2120.0000000        2151.4916992       -31.491699219    
 2600-38-32      2112.0000000        2136.2041016       -24.204101562    
 2600-39-32      2112.0000000        2134.2316895       -22.231689453    
 2600-48-362     2111.0000000        2115.3339844       -4.3339843750    
 2600-55-343     2114.0000000        2095.8657227        18.134277344    
 2600-61-40      2102.0000000        2078.5158691        23.484130859    
 2600-66-49      2085.0000000        2058.3994141        26.600585938    
 2600-71-40      2075.0000000        2048.9128418        26.087158203    
 2600-71-350     2092.0000000        2047.4367676        44.563232422    
 2566-66-26      2067.0000000        2064.0336914        2.9663085938    
 2562-48-335     2109.0000000        2118.8676758       -9.8676757812    
 2562-56-25      2124.0000000        2099.4445801        24.555419922    
 2543-1-2        2177.0000000        2193.3007812       -16.300781250    
 2546-7-316      2175.0000000        2193.9291992       -18.929199219    
 2546-12-46      2162.0000000        2185.8647461       -23.864746094    
 2546-17-33      2154.0000000        2176.9479980       -22.947998047    
 2546-22-25      2145.0000000        2170.8896484       -25.889648438    
 2546-27-11      2162.0000000        2168.6931152       -6.6931152344    
 2546-32-46      2144.0000000        2164.2451172       -20.245117188    
 2546-38-46      2137.0000000        2147.8132324       -10.813232422    
 2546-39-32      2139.0000000        2146.2429199       -7.2429199219    
 2546-56-25      2163.0000000        2109.9055176        53.094482422    
 2541-17-3       2147.0000000        2176.3720703       -29.372070312    
 2541-27-11      2163.0000000        2167.8044434       -4.8044433594    
 2548-42-362     2126.0000000        2134.7687988       -8.7687988281    
 2548-48-362     2120.0000000        2124.7434082       -4.7434082031    
 2548-55-347     2124.0000000        2106.1306152        17.869384766    
 2548-60-362     2111.0000000        2090.6708984        20.329101562    
 2547-66-48      2087.0000000        2073.7668457        13.233154297    
 2547-71-12      2084.0000000        2062.4270020        21.572998047    
 2547-71-350     2082.0000000        2062.1313477        19.868652344    
 2551-42-352     2126.0000000        2138.6401367       -12.640136719    
 2551-56-24      2127.0000000        2109.8896484        17.110351562    
 2551-66-26      2085.0000000        2075.5571289        9.4428710938    
 2550-42-362     2130.0000000        2143.5568848       -13.556884766    
 2550-56-24      2122.0000000        2115.5874023        6.4125976562    
 2550-61-54      2107.0000000        2101.0717773        5.9282226562    
 2550-66-26      2085.0000000        2081.6799316        3.3200683594    
 2542-22-25      2156.0000000        2181.4389648       -25.438964844    
 2542-27-54      2165.0000000        2178.4204102       -13.420410156    
 2542-66-26      2089.0000000        2083.8562012        5.1437988281    
 2552-56-24      2120.0000000        2120.4421387      -0.44213867188    
 2552-61-54      2109.0000000        2105.8256836        3.1743164062    
 2552-66-33      2092.0000000        2086.9035645        5.0964355469    
 2552-71-62      2083.0000000        2076.3686523        6.6313476562    
 2598-1-274      2210.0000000        2211.3994141       -1.3994140625    
 2598-6-284      2205.0000000        2208.5996094       -3.5996093750    
 2598-11-62      2197.0000000        2201.7346191       -4.7346191406    
 2584-12-325     2205.0000000        2207.9245605       -2.9245605469    
 2584-17-3       2190.0000000        2199.0490723       -9.0490722656    
 2584-22-31      2181.0000000        2192.8715820       -11.871582031    
 2584-27-11      2173.0000000        2186.6474609       -13.647460938    
 2540-48-357     2153.0000000        2164.1005859       -11.100585938    
 2540-55-343     2142.0000000        2149.2346191       -7.2346191406    
 2540-61-38      2135.0000000        2135.9995117      -0.99951171875    
 2540-66-59      2125.0000000        2117.4362793        7.5637207031    
 2540-71-40      2122.0000000        2109.6481934        12.351806641    
 2540-71-365     2122.0000000        2108.7390137        13.260986328    
 2597-42-335     2153.0000000        2196.4938965       -43.493896484    
 2597-48-357     2151.0000000        2186.8991699       -35.899169922    
 2597-55-343     2141.0000000        2171.8864746       -30.886474609    
 2597-61-38      2136.0000000        2160.3674316       -24.367431641    
 2597-66-59      2129.0000000        2148.8823242       -19.882324219    
 2597-71-40      2121.0000000        2136.5483398       -15.548339844    
 2597-71-365     2119.0000000        2134.6750488       -15.675048828    
 2565-48-342     2155.0000000        2193.9807129       -38.980712891    
 2575-55-343     2203.0000000        2165.5998535        37.400146484    
 2539-11-34      2244.0000000        2244.1127930      -0.11279296875    
 2539-22-79      2212.0000000        2225.7788086       -13.778808594    
 2539-32-46      2200.0000000        2210.2971191       -10.297119141    
 2539-37-34      2187.0000000        2195.6010742       -8.6010742188    
 2539-48-337     2174.0000000        2174.7746582      -0.77465820312    
 2539-60-321     2158.0000000        2149.4790039        8.5209960938    
 2539-65-299     2144.0000000        2131.3342285        12.665771484    
 2539-71-13      2144.0000000        2121.8806152        22.119384766    
 2539-71-365     2143.0000000        2120.5053711        22.494628906    
 2478-61-31      2169.0000000        2160.3227539        8.6772460938    
 2478-66-1       2150.0000000        2140.2700195        9.7299804688    
 2478-71-41      2148.0000000        2135.3920898        12.607910156    
 2478-71-365     2152.0000000        2137.7470703        14.252929688    
 2474-16-298     2273.0000000        2260.0305176        12.969482422    
 2474-22-32      2270.0000000        2253.7062988        16.293701172    
 2474-27-10      2263.0000000        2246.3095703        16.690429688    
 2531-42-362     2157.0000000        2170.4516602       -13.451660156    
 2531-48-357     2153.0000000        2162.3220215       -9.3220214844    
 2531-55-343     2141.0000000        2147.4555664       -6.4555664062    
 2531-61-38      2134.0000000        2134.0036621      -3.66210937500E-03
 2531-66-59      2123.0000000        2115.2814941        7.7185058594    
 2531-71-40      2121.0000000        2108.0627441        12.937255859    
 2531-71-365     2121.0000000        2107.3994141        13.600585938    
 2504-71-63      2155.0000000        2115.8818359        39.118164062    
 2520-71-62      2132.0000000        2103.8740234        28.125976562    
 2482-42-362     2162.0000000        2172.5883789       -10.588378906    
 2482-48-362     2150.0000000        2164.1018066       -14.101806641    
 2482-55-343     2143.0000000        2151.1582031       -8.1582031250    
 2482-61-40      2132.0000000        2137.2231445       -5.2231445312    
 2482-66-45      2121.0000000        2118.2785645        2.7214355469    
 2482-71-26      2126.0000000        2113.4704590        12.529541016    
 2482-71-365     2127.0000000        2114.6208496        12.379150391    
 2470-55-343     2152.0000000        2157.6428223       -5.6428222656    
 2470-66-45      2131.0000000        2124.7629395        6.2370605469    
 2470-71-41      2133.0000000        2120.7163086        12.283691406    
 2470-71-365     2136.0000000        2122.7141113        13.285888672    
 2473-55-343     2154.0000000        2157.6428223       -3.6428222656    
 2476-48-362     2155.0000000        2169.7031250       -14.703125000    
 2476-55-343     2151.0000000        2158.4313965       -7.4313964844    
 2476-61-32      2143.0000000        2144.8098145       -1.8098144531    
 2476-66-45      2142.0000000        2125.4973145        16.502685547    
 2476-71-41      2132.0000000        2121.5607910        10.439208984    
 2476-71-365     2135.0000000        2123.5742188        11.425781250    
 2523-37-1       2161.0000000        2174.3198242       -13.319824219    
 2512-71-62      2101.0000000        2096.7089844        4.2910156250    
 2513-17-24      2182.0000000        2202.7685547       -20.768554688    
 2513-22-25      2173.0000000        2195.7663574       -22.766357422    
 2513-26-362     2168.0000000        2192.5800781       -24.580078125    
 2487-42-355     2146.0000000        2161.7648926       -15.764892578    
 2467-12-46      2194.0000000        2219.7104492       -25.710449219    
 2467-17-3       2183.0000000        2209.6459961       -26.645996094    
 2467-22-25      2173.0000000        2201.0375977       -28.037597656    
 2467-27-54      2176.0000000        2197.9379883       -21.937988281    
 2467-32-46      2155.0000000        2189.6040039       -34.604003906    
 2467-38-32      2148.0000000        2173.5385742       -25.538574219    
 2466-2-128      2235.0000000        2237.1811523       -2.1811523438    
 2496-42-335     2150.0000000        2166.1750488       -16.175048828    
 2496-48-362     2143.0000000        2157.8200684       -14.820068359    
 2496-55-343     2132.0000000        2142.6796875       -10.679687500    
 2496-61-32      2123.0000000        2128.1791992       -5.1791992188    
 2496-66-45      2109.0000000        2109.5771484      -0.57714843750    
 2496-71-40      2113.0000000        2103.6098633        9.3901367188    
 2496-71-365     2113.0000000        2103.5666504        9.4333496094    
 2486-42-362     2150.0000000        2166.4050293       -16.405029297    
 2486-48-362     2143.0000000        2158.1257324       -15.125732422    
 2486-55-343     2133.0000000        2143.0107422       -10.010742188    
 2486-60-344     2117.0000000        2128.6164551       -11.616455078    
 2486-66-45      2110.0000000        2109.9931641       6.83593750000E-03
 2486-71-26      2111.0000000        2104.4331055        6.5668945312    
 2486-71-365     2115.0000000        2104.6398926        10.360107422    
 2499-33-95      2163.0000000        2187.3227539       -24.322753906    
 2493-66-33      2109.0000000        2105.9912109        3.0087890625    
 2490-66-45      2105.0000000        2104.9213867       7.86132812500E-02
 2490-71-26      2099.0000000        2097.9470215        1.0529785156    
 2490-71-365     2101.0000000        2097.7568359        3.2431640625    
 2538-17-24      2177.0000000        2194.2958984       -17.295898438    
 2538-22-25      2168.0000000        2188.3461914       -20.346191406    
 2538-27-47      2170.0000000        2185.0407715       -15.040771484    
 2538-32-46      2157.0000000        2178.9914551       -21.991455078    
 2538-37-34      2146.0000000        2164.4589844       -18.458984375    
 2538-42-363     2138.0000000        2151.5163574       -13.516357422    
 2538-48-338     2134.0000000        2143.9880371       -9.9880371094    
 2538-56-24      2127.0000000        2125.1284180        1.8715820312    
 2538-60-321     2116.0000000        2111.7951660        4.2048339844    
 2534-56-24      2132.0000000        2124.1784668        7.8215332031    
 2534-66-19      2100.0000000        2091.0363770        8.9636230469    
 2532-56-24      2125.0000000        2121.2751465        3.7248535156    
 2500-71-62      2105.0000000        2087.4040527        17.595947266    
 2517-48-362     2129.0000000        2139.5544434       -10.554443359    
 2517-55-343     2127.0000000        2120.8972168        6.1027832031    
 2517-61-32      2115.0000000        2106.2995605        8.7004394531    
 2517-66-40      2094.0000000        2086.7231445        7.2768554688    
 2517-71-350     2088.0000000        2076.4848633        11.515136719    
 2514-17-3       2169.0000000        2192.7241211       -23.724121094    
 2475-22-25      2153.0000000        2188.1394043       -35.139404297    
 2475-27-11      2143.0000000        2185.1940918       -42.194091797    
 2475-43-32      2135.0000000        2152.3491211       -17.349121094    
 2475-48-362     2133.0000000        2144.6328125       -11.632812500    
 2475-55-347     2130.0000000        2126.8549805        3.1450195312    
 2475-60-362     2121.0000000        2112.1989746        8.8010253906    
 2475-66-1       2097.0000000        2093.4082031        3.5917968750    
 2475-71-350     2090.0000000        2081.4768066        8.5231933594    
 2480-22-25      2178.0000000        2196.4453125       -18.445312500    
 2480-42-362     2140.0000000        2158.4799805       -18.479980469    
 2480-48-362     2136.0000000        2151.2561035       -15.256103516    
 2480-56-5       2140.0000000        2133.9382324        6.0617675781    
 2480-61-5       2134.0000000        2119.6003418        14.399658203    
 2480-66-40      2106.0000000        2100.7353516        5.2646484375    
 2480-71-26      2096.0000000        2092.2968750        3.7031250000    
 2480-71-350     2098.0000000        2092.0527344        5.9472656250    
 2471-17-3       2179.0000000        2204.8200684       -25.820068359    
 2471-27-11      2163.0000000        2193.2382812       -30.238281250    
 2536-48-362     2124.0000000        2133.9343262       -9.9343261719    
 2536-55-347     2125.0000000        2115.1696777        9.8303222656    
 2536-60-362     2113.0000000        2100.5864258        12.413574219    
 2536-66-40      2091.0000000        2080.9360352        10.063964844    
 2536-71-350     2085.0000000        2069.8127441        15.187255859    
 2528-42-362     2129.0000000        2138.8381348       -9.8381347656    
 2528-48-362     2123.0000000        2129.5986328       -6.5986328125    
 2528-55-347     2126.0000000        2111.4472656        14.552734375    
 2528-60-362     2113.0000000        2096.2250977        16.774902344    
 2528-66-48      2088.0000000        2076.8354492        11.164550781    
 2528-71-350     2082.0000000        2064.7053223        17.294677734    
 2509-17-3       2148.0000000        2187.2687988       -39.268798828    
 2509-31-351     2138.0000000        2173.5654297       -35.565429688    
 2521-42-363     2132.0000000        2139.1855469       -7.1855468750    
 2521-48-335     2126.0000000        2130.1467285       -4.1467285156    
 2521-56-25      2133.0000000        2111.4572754        21.542724609    
 2521-61-56      2117.0000000        2096.4501953        20.549804688    
 2505-56-25      2133.0000000        2114.9477539        18.052246094    
 2506-48-335     2129.0000000        2133.5517578       -4.5517578125    
 2506-56-25      2133.0000000        2114.8723145        18.127685547    
 2506-61-56      2082.0000000        2100.1147461       -18.114746094    
 2506-66-18      2092.0000000        2081.0058594        10.994140625    
 2506-71-11      2089.0000000        2069.1997070        19.800292969    
 2506-71-365     2089.0000000        2068.2167969        20.783203125    
 2488-1-357      2201.0000000        2212.9855957       -11.985595703    
 2488-7-316      2188.0000000        2208.3942871       -20.394287109    
 2488-10-283     2174.0000000        2201.1181641       -27.118164062    
 2488-17-33      2162.0000000        2190.2243652       -28.224365234    
 2488-22-25      2152.0000000        2183.0307617       -31.030761719    
 2488-27-47      2156.0000000        2181.0205078       -25.020507812    
 2488-37-27      2136.0000000        2160.9104004       -24.910400391    
 2472-1-357      2208.0000000        2215.2709961       -7.2709960938    
 2472-8-36       2189.0000000        2211.2297363       -22.229736328    
 2472-12-50      2174.0000000        2203.6474609       -29.647460938    
 2472-17-33      2162.0000000        2193.4890137       -31.489013672    
 2537-22-25      2136.0000000        2160.9519043       -24.951904297    
 2537-27-47      2145.0000000        2158.1540527       -13.154052734    
 2537-32-46      2140.0000000        2154.7922363       -14.792236328    
 2537-37-34      2138.0000000        2141.2343750       -3.2343750000    
 2537-42-363     2125.0000000        2129.8439941       -4.8439941406    
 2537-56-20      2135.0000000        2101.5429688        33.457031250    
 2497-42-363     2131.0000000        2136.5036621       -5.5036621094    
 2497-48-337     2126.0000000        2127.5361328       -1.5361328125    
 2497-56-20      2135.0000000        2109.2629395        25.737060547    
 2434-48-362     2131.0000000        2141.1437988       -10.143798828    
 2434-55-346     2132.0000000        2123.2785645        8.7214355469    
 2434-61-6       2124.0000000        2107.8417969        16.158203125    
 2434-66-48      2095.0000000        2089.3513184        5.6486816406    
 2434-71-12      2089.0000000        2077.5249023        11.475097656    
 2434-71-350     2088.0000000        2075.3676758        12.632324219    
 2355-42-362     2138.0000000        2156.9887695       -18.988769531    
 2355-48-362     2135.0000000        2148.1096191       -13.109619141    
 2355-55-343     2134.0000000        2128.8666992        5.1333007812    
 2355-61-40      2122.0000000        2112.7922363        9.2077636719    
 2355-71-47      2094.0000000        2085.7272949        8.2727050781    
 2355-71-350     2092.0000000        2082.9150391        9.0849609375    
 2428-56-38      2135.0000000        2128.2690430        6.7309570312    
 2428-66-48      2102.0000000        2096.6047363        5.3952636719    
 2428-71-5       2091.0000000        2083.0712891        7.9287109375    
 2428-71-365     2091.0000000        2082.8339844        8.1660156250    
 2433-66-48      2099.0000000        2092.9223633        6.0776367188    
 2433-71-5       2091.0000000        2077.6726074        13.327392578    
 2433-71-365     2087.0000000        2077.2446289        9.7553710938    
 2403-48-362     2122.0000000        2145.6232910       -23.623291016    
 2403-55-343     2126.0000000        2128.0563965       -2.0563964844    
 2403-66-59      2098.0000000        2094.6606445        3.3393554688    
 2403-71-47      2091.0000000        2078.3730469        12.626953125    
 2403-71-365     2090.0000000        2077.7456055        12.254394531    
 2410-66-59      2100.0000000        2096.1730957        3.8269042969    
 2410-71-47      2091.0000000        2080.4414062        10.558593750    
 2410-71-365     2090.0000000        2079.9333496        10.066650391    
 2462-8-38       2184.0000000        2206.4748535       -22.474853516    
 2464-12-50      2168.0000000        2198.8337402       -30.833740234    
 2464-17-23      2159.0000000        2189.1691895       -30.169189453    
 2464-22-23      2149.0000000        2181.3620605       -32.362060547    
 2459-42-362     2136.0000000        2149.6960449       -13.696044922    
 2459-48-362     2131.0000000        2140.6938477       -9.6938476562    
 2409-66-48      2103.0000000        2097.1049805        5.8950195312    
 2409-71-12      2092.0000000        2081.3940430        10.605957031    
 2357-12-50      2196.0000000        2218.5239258       -22.523925781    
 2357-17-35      2180.0000000        2207.9238281       -27.923828125    
 2357-22-23      2170.0000000        2198.9570312       -28.957031250    
 2357-27-34      2169.0000000        2195.1289062       -26.128906250    
 2357-37-34      2157.0000000        2174.8178711       -17.817871094    
 2357-66-48      2119.0000000        2105.7873535        13.212646484    
 2357-71-12      2085.0000000        2093.1652832       -8.1652832031    
 2357-71-365     2093.0000000        2092.6630859       0.33691406250    
 2336-61-21      2132.0000000        2121.2272949        10.772705078    
 2363-56-38      2144.0000000        2135.9445801        8.0554199219    
 2363-66-48      2121.0000000        2107.8115234        13.188476562    
 2363-71-5       2102.0000000        2095.6857910        6.3142089844    
 2363-71-365     2103.0000000        2095.6259766        7.3740234375    
 2460-22-25      2164.0000000        2191.9753418       -27.975341797    
 2460-48-362     2136.0000000        2147.8132324       -11.813232422    
 2460-55-343     2134.0000000        2130.4248047        3.5751953125    
 2460-61-20      2124.0000000        2115.5715332        8.4284667969    
 2460-66-49      2104.0000000        2097.1223145        6.8776855469    
 2460-71-41      2096.0000000        2085.9250488        10.074951172    
 2460-71-350     2094.0000000        2085.5466309        8.4533691406    
 2399-56-38      2138.0000000        2134.2106934        3.7893066406    
 2399-66-48      2114.0000000        2104.5126953        9.4873046875    
 2399-71-5       2100.0000000        2092.5129395        7.4870605469    
 2399-71-365     2099.0000000        2092.5483398        6.4516601562    
 2373-56-6       2140.0000000        2137.6591797        2.3408203125    
 2373-61-6       2129.0000000        2123.8847656        5.1152343750    
 2373-66-48      2121.0000000        2107.5305176        13.469482422    
 2373-71-12      2104.0000000        2095.9892578        8.0107421875    
 2373-71-365     2104.0000000        2096.0986328        7.9013671875    
 2356-56-38      2142.0000000        2141.2185059       0.78149414062    
 2356-66-42      2133.0000000        2112.1179199        20.882080078    
 2356-71-5       2113.0000000        2102.0959473        10.904052734    
 2356-71-365     2115.0000000        2102.4096680        12.590332031    
 2389-8-37       2225.0000000        2232.0878906       -7.0878906250    
 2389-12-38      2209.0000000        2224.5056152       -15.505615234    
 2388-17-34      2187.0000000        2213.8339844       -26.833984375    
 2388-22-25      2175.0000000        2204.7949219       -29.794921875    
 2388-32-46      2167.0000000        2193.0195312       -26.019531250    
 2388-38-32      2160.0000000        2175.9494629       -15.949462891    
 2343-12-50      2205.0000000        2226.2639160       -21.263916016    
 2343-17-35      2190.0000000        2215.3532715       -25.353271484    
 2343-22-24      2178.0000000        2206.0947266       -28.094726562    
 2343-61-21      2153.0000000        2131.0544434        21.945556641    
 2427-42-363     2149.0000000        2169.0019531       -20.001953125    
 2427-48-337     2143.0000000        2160.5974121       -17.597412109    
 2427-61-20      2124.0000000        2131.1557617       -7.1557617188    
 2427-66-31      2109.0000000        2112.6494141       -3.6494140625    
 2418-10-262     2219.0000000        2232.4099121       -13.409912109    
 2408-10-262     2234.0000000        2238.1147461       -4.1147460938    
 2431-7-316      2228.0000000        2234.8747559       -6.8747558594    
 2431-12-38      2209.0000000        2226.6196289       -17.619628906    
 2446-22-25      2182.0000000        2207.7546387       -25.754638672    
 2447-7-32       2226.0000000        2229.0224609       -3.0224609375    
 2432-7-316      2220.0000000        2232.3061523       -12.306152344    
 2432-12-33      2203.0000000        2223.9833984       -20.983398438    
 2432-22-1       2179.0000000        2204.9584961       -25.958496094    
 2432-42-363     2152.0000000        2164.6098633       -12.609863281    
 2405-16-293     2215.0000000        2220.6428223       -5.6428222656    
 2383-12-50      2224.0000000        2237.0903320       -13.090332031    
 2383-17-24      2210.0000000        2227.8598633       -17.859863281    
 2383-22-24      2199.0000000        2218.3542480       -19.354248047    
 2383-27-11      2194.0000000        2212.1977539       -18.197753906    
 2383-32-48      2181.0000000        2201.4870605       -20.487060547    
 2387-61-20      2131.0000000        2135.9038086       -4.9038085938    
 2387-66-28      2117.0000000        2117.8371582      -0.83715820312    
 2387-71-54      2115.0000000        2113.3813477        1.6186523438    
 2372-27-47      2181.0000000        2208.9357910       -27.935791016    
 2372-42-363     2156.0000000        2171.6777344       -15.677734375    
 2372-56-19      2142.0000000        2146.8923340       -4.8923339844    
 2372-71-54      2109.0000000        2109.1142578      -0.11425781250    
 2332-61-20      2135.0000000        2136.5661621       -1.5661621094    
 2332-66-28      2141.0000000        2118.7766113        22.223388672    
 2332-71-54      2112.0000000        2114.1474609       -2.1474609375    
 2437-22-24      2213.0000000        2233.8242188       -20.824218750    
 2437-27-15      2208.0000000        2227.4760742       -19.476074219    
 2437-32-48      2196.0000000        2214.9235840       -18.923583984    
 2438-12-306     2233.0000000        2242.1301270       -9.1301269531    
 2438-16-298     2223.0000000        2234.2309570       -11.230957031    
 2430-42-363     2158.0000000        2175.1354980       -17.135498047    
 2430-48-337     2145.0000000        2166.8347168       -21.834716797    
 2430-56-19      2141.0000000        2154.6679688       -13.667968750    
 2430-66-28      2118.0000000        2121.8085938       -3.8085937500    
 2430-71-54      2126.0000000        2118.8061523        7.1938476562    
 2444-10-264     2239.0000000        2248.4318848       -9.4318847656    
 2424-10-265     2235.0000000        2249.2421875       -14.242187500    
 2425-10-265     2237.0000000        2252.2954102       -15.295410156    
 2414-10-263     2232.0000000        2253.4414062       -21.441406250    
 2458-42-362     2153.0000000        2171.1979980       -18.197998047    
 2458-48-362     2143.0000000        2161.8398438       -18.839843750    
 2458-56-32      2135.0000000        2148.8464355       -13.846435547    
 2458-61-20      2125.0000000        2134.5947266       -9.5947265625    
 2458-66-49      2112.0000000        2116.2580566       -4.2580566406    
 2458-71-41      2118.0000000        2112.3974609        5.6025390625    
 2458-71-365     2118.0000000        2113.1069336        4.8930664062    
 2439-42-363     2156.0000000        2172.3015137       -16.301513672    
 2439-48-337     2148.0000000        2162.8974609       -14.897460938    
 2439-56-19      2143.0000000        2150.0683594       -7.0683593750    
 2439-61-20      2130.0000000        2136.0502930       -6.0502929688    
 2439-66-31      2114.0000000        2117.7680664       -3.7680664062    
 2415-1-52       2259.0000000        2255.4304199        3.5695800781    
 2407-27-47      2201.0000000        2220.2287598       -19.228759766    
 2407-61-20      2133.0000000        2141.4494629       -8.4494628906    
 2407-66-28      2118.0000000        2122.8435059       -4.8435058594    
 2407-71-54      2127.0000000        2120.4055176        6.5944824219    
 2402-10-263     2229.0000000        2240.5783691       -11.578369141    
 2394-56-26      2149.0000000        2161.4509277       -12.450927734    
 2394-61-61      2142.0000000        2146.9553223       -4.9553222656    
 2394-66-25      2129.0000000        2128.3310547       0.66894531250    
 2386-60-341     2130.0000000        2144.1208496       -14.120849609    
 2386-66-49      2121.0000000        2125.7575684       -4.7575683594    
 2386-71-40      2124.0000000        2123.4094238       0.59057617188    
 2386-71-365     2125.0000000        2123.8293457        1.1706542969    
 2453-27-47      2278.0000000        2251.0490723        26.950927734    
 2413-2-121      2301.0000000        2281.2910156        19.708984375    
 2412-12-304     2252.0000000        2273.5720215       -21.572021484    
 2412-16-298     2240.0000000        2265.8859863       -25.885986328    
 2412-16-364     2242.0000000        2265.7968750       -23.796875000    
 2398-1-357      2279.0000000        2284.8540039       -5.8540039062    
 2398-7-2        2288.0000000        2282.2233887        5.7766113281    
 2395-42-363     2217.0000000        2206.7370605        10.262939453    
 2395-48-337     2208.0000000        2203.5231934        4.4768066406    
 2385-42-363     2211.0000000        2204.9404297        6.0595703125    
 2385-48-362     2200.0000000        2200.5979004      -0.59790039062    
 2385-55-346     2189.0000000        2190.6191406       -1.6191406250    
 2385-61-31      2180.0000000        2175.7145996        4.2854003906    
 2385-66-1       2161.0000000        2155.8598633        5.1401367188    
 2385-71-41      2161.0000000        2154.2395020        6.7604980469    
 2385-71-365     2167.0000000        2157.9167480        9.0832519531    
 2282-12-46      2278.0000000        2283.0595703       -5.0595703125    
 2282-17-24      2263.0000000        2275.1760254       -12.176025391    
 2282-22-24      2258.0000000        2267.4663086       -9.4663085938    
 2282-32-48      2238.0000000        2241.7106934       -3.7106933594    
 2326-26-293     2237.0000000        2248.2492676       -11.249267578    
 2326-42-363     2208.0000000        2201.2770996        6.7229003906    
 2326-48-362     2194.0000000        2194.2849121      -0.28491210938    
 2326-56-33      2168.0000000        2182.5949707       -14.594970703    
 2326-61-41      2167.0000000        2167.6467285      -0.64672851562    
 2326-66-45      2152.0000000        2150.0549316        1.9450683594    
 2326-71-41      2156.0000000        2149.7062988        6.2937011719    
 2326-71-365     2160.0000000        2150.7277832        9.2722167969    
 2260-56-26      2172.0000000        2183.1606445       -11.160644531    
 2260-61-61      2161.0000000        2167.8383789       -6.8383789062    
 2260-66-25      2147.0000000        2150.8688965       -3.8688964844    
 2260-71-61      2152.0000000        2151.2299805       0.77001953125    
 2202-71-61      2133.0000000        2142.4667969       -9.4667968750    
 2127-42-335     2192.0000000        2200.6469727       -8.6469726562    
 2283-7-311      2250.0000000        2256.4760742       -6.4760742188    
 2283-17-24      2219.0000000        2241.1252441       -22.125244141    
 2283-22-24      2212.0000000        2232.2695312       -20.269531250    
 2283-27-47      2202.0000000        2223.9357910       -21.935791016    
 2283-32-48      2187.0000000        2211.1804199       -24.180419922    
 2283-35-15      2180.0000000        2200.6840820       -20.684082031    
 2291-37-32      2177.0000000        2195.3781738       -18.378173828    
 2291-48-338     2156.0000000        2174.0700684       -18.070068359    
 2291-60-321     2133.0000000        2146.2714844       -13.271484375    
 2291-71-13      2129.0000000        2126.9208984        2.0791015625    
 2291-71-365     2130.0000000        2126.5856934        3.4143066406    
 2304-7-311      2243.0000000        2250.2768555       -7.2768554688    
 2304-12-38      2229.0000000        2243.3376465       -14.337646484    
 2304-17-3       2211.0000000        2234.5493164       -23.549316406    
 2304-22-24      2202.0000000        2225.2434082       -23.243408203    
 2304-27-11      2197.0000000        2218.0336914       -21.033691406    
 2237-7-79       2255.0000000        2262.1391602       -7.1391601562    
 2237-12-38      2241.0000000        2254.1225586       -13.122558594    
 2237-17-24      2224.0000000        2244.8947754       -20.894775391    
 2237-22-24      2217.0000000        2235.7167969       -18.716796875    
 2237-27-16      2200.0000000        2227.0593262       -27.059326172    
 2218-56-34      2138.0000000        2158.6689453       -20.668945312    
 2218-66-59      2128.0000000        2130.9797363       -2.9797363281    
 2218-71-54      2128.0000000        2128.0874023      -8.74023437500E-02
 2218-71-365     2128.0000000        2127.8022461       0.19775390625    
 2212-26-349     2217.0000000        2228.5603027       -11.560302734    
 2212-42-362     2184.0000000        2187.1052246       -3.1052246094    
 2212-61-20      2151.0000000        2149.0620117        1.9379882812    
 2212-66-59      2145.0000000        2134.0058594        10.994140625    
 2212-71-54      2148.0000000        2131.8249512        16.175048828    
 2212-71-365     2148.0000000        2131.5175781        16.482421875    
 2213-56-34      2137.0000000        2160.9113770       -23.911376953    
 2213-66-59      2132.0000000        2132.8417969      -0.84179687500    
 2213-71-54      2133.0000000        2130.4245605        2.5754394531    
 2213-71-365     2133.0000000        2130.1569824        2.8430175781    
 2177-42-363     2166.0000000        2184.6906738       -18.690673828    
 2177-48-337     2168.0000000        2175.3039551       -7.3039550781    
 2177-56-19      2145.0000000        2159.0625000       -14.062500000    
 2177-66-31      2130.0000000        2130.7473145      -0.74731445312    
 2177-71-54      2106.0000000        2127.2937012       -21.293701172    
 2175-6-283      2262.0000000        2268.1059570       -6.1059570312    
 2175-12-51      2240.0000000        2257.9680176       -17.968017578    
 2175-17-24      2228.0000000        2248.5275879       -20.527587891    
 2175-22-24      2220.0000000        2238.7583008       -18.758300781    
 2175-27-47      2202.0000000        2228.1440430       -26.144042969    
 2176-56-34      2142.0000000        2159.2568359       -17.256835938    
 2176-66-59      2132.0000000        2132.5983887      -0.59838867188    
 2176-71-54      2133.0000000        2129.8916016        3.1083984375    
 2176-71-365     2133.0000000        2129.6027832        3.3972167969    
 2154-56-19      2146.0000000        2161.9499512       -15.949951172    
 2154-61-20      2142.0000000        2147.0012207       -5.0012207031    
 2154-66-28      2135.0000000        2134.2014160       0.79858398438    
 2154-71-54      2139.0000000        2133.0563965        5.9436035156    
 2232-56-26      2147.0000000        2168.7648926       -21.764892578    
 2232-61-20      2140.0000000        2154.7985840       -14.798583984    
 2232-66-25      2134.0000000        2138.7080078       -4.7080078125    
 2232-71-53      2137.0000000        2137.5788574      -0.57885742188    
 2211-56-26      2149.0000000        2168.0334473       -19.033447266    
 2211-61-20      2141.0000000        2154.4333496       -13.433349609    
 2211-66-25      2137.0000000        2139.3266602       -2.3266601562    
 2211-71-53      2141.0000000        2138.1821289        2.8178710938    
 2233-56-26      2143.0000000        2163.8312988       -20.831298828    
 2233-61-20      2139.0000000        2150.0922852       -11.092285156    
 2170-56-26      2146.0000000        2164.5002441       -18.500244141    
 2170-66-25      2135.0000000        2136.5925293       -1.5925292969    
 2131-12-290     2246.0000000        2265.7836914       -19.783691406    
 2131-56-26      2155.0000000        2169.5549316       -14.554931641    
 2131-61-61      2150.0000000        2155.9172363       -5.9172363281    
 2131-66-25      2143.0000000        2141.7893066        1.2106933594    
 2131-71-53      2148.0000000        2141.0466309        6.9533691406    
 2137-42-363     2174.0000000        2185.5776367       -11.577636719    
 2137-48-338     2172.0000000        2176.9650879       -4.9650878906    
 2137-56-24      2171.0000000        2160.4360352        10.563964844    
 2137-66-19      2140.0000000        2129.6357422        10.364257812    
 2137-71-60      2138.0000000        2124.9975586        13.002441406    
 2289-11-38      2218.0000000        2232.7512207       -14.751220703    
 2289-17-33      2195.0000000        2220.3947754       -25.394775391    
 2289-22-24      2184.0000000        2210.8603516       -26.860351562    
 2289-32-32      2180.0000000        2198.4787598       -18.478759766    
 2241-10-33      2227.0000000        2238.7111816       -11.711181641    
 2241-17-33      2199.0000000        2224.8281250       -25.828125000    
 2241-22-24      2189.0000000        2214.9807129       -25.980712891    
 2241-42-363     2164.0000000        2176.3442383       -12.344238281    
 2241-48-334     2158.0000000        2168.0800781       -10.080078125    
 2241-56-26      2149.0000000        2150.4663086       -1.4663085938    
 2241-61-21      2141.0000000        2135.8908691        5.1091308594    
 2236-1-357      2246.0000000        2250.1523438       -4.1523437500    
 2236-6-341      2242.0000000        2246.9465332       -4.9465332031    
 2236-12-59      2219.0000000        2236.8576660       -17.857666016    
 2236-16-313     2206.0000000        2226.6247559       -20.624755859    
 2236-22-32      2193.0000000        2216.1420898       -23.142089844    
 2327-71-365     2124.0000000        2103.4570312        20.542968750    
 2306-71-54      2114.0000000        2101.7824707        12.217529297    
 2306-71-365     2108.0000000        2102.1601562        5.8398437500    
 2264-56-38      2145.0000000        2143.7204590        1.2795410156    
 2264-66-48      2132.0000000        2113.2104492        18.789550781    
 2264-71-5       2111.0000000        2102.6831055        8.3168945312    
 2264-71-365     2111.0000000        2104.1831055        6.8168945312    
 2307-71-54      2110.0000000        2107.5676270        2.4323730469    
 2307-71-365     2102.0000000        2108.6809082       -6.6809082031    
 2292-56-38      2153.0000000        2136.6477051        16.352294922    
 2292-66-42      2134.0000000        2108.2324219        25.767578125    
 2293-56-38      2152.0000000        2136.3342285        15.665771484    
 2293-66-48      2131.0000000        2108.1064453        22.893554688    
 2293-71-12      2097.0000000        2095.5307617        1.4692382812    
 2293-71-365     2111.0000000        2096.3273926        14.672607422    
 2272-55-346     2143.0000000        2142.7963867       0.20361328125    
 2272-71-54      2109.0000000        2106.0769043        2.9230957031    
 2272-71-365     2100.0000000        2107.6752930       -7.6752929688    
 2268-66-3       2122.0000000        2106.7861328        15.213867188    
 2268-71-365     2107.0000000        2096.7294922        10.270507812    
 2242-56-38      2144.0000000        2137.9729004        6.0270996094    
 2242-66-48      2122.0000000        2108.0256348        13.974365234    
 2242-71-365     2100.0000000        2096.8762207        3.1237792969    
 2257-56-38      2149.0000000        2141.2038574        7.7961425781    
 2257-66-48      2135.0000000        2111.0051270        23.994873047    
 2258-56-38      2152.0000000        2140.9755859        11.024414062    
 2258-66-48      2138.0000000        2110.8139648        27.186035156    
 2187-42-362     2156.0000000        2176.5874023       -20.587402344    
 2187-48-336     2152.0000000        2168.6171875       -16.617187500    
 2187-56-5       2143.0000000        2148.0444336       -5.0444335938    
 2187-61-6       2137.0000000        2130.3513184        6.6486816406    
 2187-66-48      2121.0000000        2113.8068848        7.1931152344    
 2187-71-54      2107.0000000        2104.0942383        2.9057617188    
 2187-71-349     2100.0000000        2104.0412598       -4.0412597656    
 2234-56-38      2152.0000000        2152.3015137      -0.30151367188    
 2234-66-48      2126.0000000        2120.7675781        5.2324218750    
 2226-66-48      2127.0000000        2120.9738770        6.0261230469    
 2155-56-38      2153.0000000        2154.9294434       -1.9294433594    
 2155-66-48      2127.0000000        2122.4389648        4.5610351562    
 2333-56-38      2142.0000000        2136.0910645        5.9089355469    
 2333-66-48      2117.0000000        2108.2998047        8.7001953125    
 2308-56-38      2143.0000000        2134.8144531        8.1855468750    
 2308-66-48      2123.0000000        2107.0275879        15.972412109    
 2308-71-21      2103.0000000        2094.4221191        8.5778808594    
 2308-71-365     2104.0000000        2094.5754395        9.4245605469    
 2329-56-38      2145.0000000        2134.7097168        10.290283203    
 2329-66-48      2123.0000000        2106.9892578        16.010742188    
 2329-71-12      2098.0000000        2094.4160156        3.5839843750    
 2329-71-365     2104.0000000        2094.4194336        9.5805664062    
 2319-66-48      2133.0000000        2108.4213867        24.578613281    
 2320-56-38      2146.0000000        2136.0761719        9.9238281250    
 2320-66-48      2131.0000000        2108.1958008        22.804199219    
 2320-71-12      2108.0000000        2095.8559570        12.144042969    
 2320-71-365     2112.0000000        2096.2153320        15.784667969    
 2299-55-343     2141.0000000        2137.4592285        3.5407714844    
 2299-71-54      2096.0000000        2095.8393555       0.16064453125    
 2299-71-365     2096.0000000        2096.0581055      -5.81054687500E-02
 2274-56-38      2145.0000000        2133.9013672        11.098632812    
 2274-71-54      2106.0000000        2098.1440430        7.8559570312    
 2274-71-365     2098.0000000        2098.9394531      -0.93945312500    
 2294-56-38      2148.0000000        2134.6630859        13.336914062    
 2294-66-48      2126.0000000        2106.7856445        19.214355469    
 2294-71-12      2100.0000000        2093.8762207        6.1237792969    
 2294-71-365     2105.0000000        2094.3332520        10.666748047    
 2273-56-38      2146.0000000        2134.4423828        11.557617188    
 2273-66-48      2124.0000000        2106.4416504        17.558349609    
 2273-71-21      2104.0000000        2093.5134277        10.486572266    
 2273-71-365     2103.0000000        2093.9633789        9.0366210938    
 2284-66-42      2108.0000000        2101.6223145        6.3776855469    
 2167-1-365      2231.0000000        2246.5415039       -15.541503906    
 2167-7-310      2218.0000000        2243.0070801       -25.007080078    
 2167-11-38      2206.0000000        2236.0051270       -30.005126953    
 2183-12-50      2200.0000000        2233.7766113       -33.776611328    
 2183-17-34      2181.0000000        2222.9162598       -41.916259766    
 2183-22-23      2171.0000000        2213.2031250       -42.203125000    
 2183-32-47      2167.0000000        2201.6413574       -34.641357422    
 2183-38-32      2162.0000000        2184.7111816       -22.711181641    
 2168-42-364     2155.0000000        2177.8217773       -22.821777344    
 2243-42-364     2133.0000000        2166.4418945       -33.441894531    
 2243-56-25      2126.0000000        2134.9736328       -8.9736328125    
 2243-66-19      2074.0000000        2101.4316406       -27.431640625    
 2108-66-48      2141.0000000        2129.3164062        11.683593750    
 2109-12-50      2233.0000000        2242.5729980       -9.5729980469    
 2109-17-34      2214.0000000        2231.9602051       -17.960205078    
 2109-22-23      2204.0000000        2221.7312012       -17.731201172    
 2109-42-362     2172.0000000        2183.8642578       -11.864257812    
 2109-48-363     2170.0000000        2175.9409180       -5.9409179688    
 2109-55-346     2156.0000000        2159.5187988       -3.5187988281    
 2109-60-323     2151.0000000        2143.1875000        7.8125000000    
 2109-66-48      2144.0000000        2126.0710449        17.928955078    
 2109-71-12      2126.0000000        2119.1369629        6.8630371094    
 2109-71-349     2126.0000000        2119.2119141        6.7880859375    
 1991-7-25       2262.0000000        2268.0734863       -6.0734863281    
 1991-12-50      2243.0000000        2257.2067871       -14.206787109    
 1991-17-34      2224.0000000        2247.5002441       -23.500244141    
 1991-22-23      2214.0000000        2236.7626953       -22.762695312    
 1991-27-11      2207.0000000        2229.2343750       -22.234375000    
 1991-38-32      2199.0000000        2204.6125488       -5.6125488281    
 1991-42-365     2178.0000000        2199.3845215       -21.384521484    
 1991-48-337     2181.0000000        2193.5227051       -12.522705078    
 1991-56-25      2168.0000000        2178.4890137       -10.489013672    
 1991-60-323     2162.0000000        2162.9580078      -0.95800781250    
 2038-12-51      2244.0000000        2255.6513672       -11.651367188    
 2038-17-24      2232.0000000        2246.8850098       -14.885009766    
 2038-22-24      2223.0000000        2236.2968750       -13.296875000    
 2038-56-19      2217.0000000        2167.0314941        49.968505859    
 2122-61-21      2149.0000000        2146.7917480        2.2082519531    
 2075-56-38      2165.0000000        2166.3400879       -1.3400878906    
 2039-61-21      2161.0000000        2159.9963379        1.0036621094    
 2021-61-20      2161.0000000        2161.5058594      -0.50585937500    
 2020-61-21      2164.0000000        2160.8012695        3.1987304688    
 1987-66-48      2158.0000000        2149.9643555        8.0356445312    
 1958-42-362     2187.0000000        2204.3061523       -17.306152344    
 1958-48-362     2189.0000000        2198.7746582       -9.7746582031    
 1958-55-346     2175.0000000        2185.2124023       -10.212402344    
 1958-61-20      2168.0000000        2169.4895020       -1.4895019531    
 1958-66-1       2158.0000000        2153.9870605        4.0129394531    
 1958-71-47      2154.0000000        2149.0620117        4.9379882812    
 1958-71-349     2153.0000000        2149.1240234        3.8759765625    
 1952-12-301     2256.0000000        2261.2929688       -5.2929687500    
 1952-17-4       2237.0000000        2255.6059570       -18.605957031    
 1952-22-32      2234.0000000        2243.9179688       -9.9179687500    
 1952-27-11      2225.0000000        2235.6533203       -10.653320312    
 2107-56-26      2157.0000000        2167.1411133       -10.141113281    
 2107-61-20      2145.0000000        2153.6191406       -8.6191406250    
 2107-71-53      2148.0000000        2139.4199219        8.5800781250    
 2079-7-152      2264.0000000        2274.4387207       -10.438720703    
 2079-61-20      2145.0000000        2156.0966797       -11.096679688    
 2057-42-362     2188.0000000        2199.1018066       -11.101806641    
 2057-48-362     2181.0000000        2188.1672363       -7.1672363281    
 2057-55-346     2150.0000000        2170.5842285       -20.584228516    
 2057-61-20      2156.0000000        2156.8288574      -0.82885742188    
 2057-65-354     2147.0000000        2144.4074707        2.5925292969    
 2057-71-56      2152.0000000        2143.7517090        8.2482910156    
 2057-71-365     2152.0000000        2143.5363770        8.4636230469    
 2161-6-283      2266.0000000        2267.4934082       -1.4934082031    
 2161-10-283     2246.0000000        2259.6662598       -13.666259766    
 2161-17-24      2232.0000000        2247.9050293       -15.905029297    
 2161-22-24      2224.0000000        2238.1501465       -14.150146484    
 2161-27-47      2212.0000000        2227.6140137       -15.614013672    
 2161-32-48      2199.0000000        2215.0524902       -16.052490234    
 2161-38-32      2192.0000000        2195.6076660       -3.6076660156    
 2094-61-20      2148.0000000        2151.0146484       -3.0146484375    
 2094-66-28      2138.0000000        2138.2705078      -0.27050781250    
 2094-71-54      2143.0000000        2137.0119629        5.9880371094    
 2059-7-311      2263.0000000        2265.3632812       -2.3632812500    
 2059-12-51      2255.0000000        2258.8081055       -3.8081054688    
 2059-17-4       2229.0000000        2250.4616699       -21.461669922    
 2059-22-24      2220.0000000        2240.1791992       -20.179199219    
 2059-27-47      2219.0000000        2230.5266113       -11.526611328    
 2059-61-21      2174.0000000        2153.1572266        20.842773438    
 1989-42-365     2190.0000000        2203.4860840       -13.486083984    
 1989-56-17      2179.0000000        2179.0898438      -8.98437500000E-02
 1989-61-20      2170.0000000        2164.4597168        5.5402832031    
 1968-42-365     2192.0000000        2206.9187012       -14.918701172    
 1968-56-17      2180.0000000        2184.3850098       -4.3850097656    
 1968-61-20      2173.0000000        2169.1701660        3.8298339844    
 1937-56-17      2189.0000000        2187.7902832        1.2097167969    
 1937-61-20      2176.0000000        2172.3784180        3.6215820312    
 1937-66-27      2171.0000000        2157.1782227        13.821777344    
 2007-61-21      2165.0000000        2164.1455078       0.85449218750    
 2007-66-25      2159.0000000        2152.4655762        6.5344238281    
 1981-61-21      2168.0000000        2167.0615234       0.93847656250    
 2037-66-32      2145.0000000        2157.5148926       -12.514892578    
 2106-26-349     2227.0000000        2242.8181152       -15.818115234    
 2106-32-32      2213.0000000        2224.6289062       -11.628906250    
 2106-42-362     2192.0000000        2201.0009766       -9.0009765625    
 2106-48-362     2179.0000000        2187.2224121       -8.2224121094    
 2106-56-34      2160.0000000        2171.1894531       -11.189453125    
 2106-61-41      2151.0000000        2158.5585938       -7.5585937500    
 2106-66-54      2145.0000000        2147.2133789       -2.2133789062    
 2106-71-41      2144.0000000        2147.7878418       -3.7878417969    
 2106-71-365     2148.0000000        2147.7426758       0.25732421875    
 1951-12-51      2290.0000000        2296.9785156       -6.9785156250    
 1951-17-39      2273.0000000        2284.3457031       -11.345703125    
 1951-22-28      2266.0000000        2272.8227539       -6.8227539062    
 1951-38-354     2221.0000000        2227.7485352       -6.7485351562    
 1951-42-363     2215.0000000        2220.8178711       -5.8178710938    
 1951-48-362     2201.0000000        2208.5039062       -7.5039062500    
 1951-55-346     2181.0000000        2192.3081055       -11.308105469    
 1951-61-41      2171.0000000        2178.3769531       -7.3769531250    
 1951-66-49      2160.0000000        2166.6042480       -6.6042480469    
 1951-71-56      2163.0000000        2169.2397461       -6.2397460938    
 1951-71-365     2165.0000000        2169.8215332       -4.8215332031    
 2494-1-365      2306.0000000        2307.7880859       -1.7880859375    
 2489-22-66      2270.0000000        2261.3654785        8.6345214844    
 2489-27-87      2267.0000000        2254.0744629        12.925537109    
 2489-32-1       2263.0000000        2243.7939453        19.206054688    
 2489-33-60      2258.0000000        2239.2128906        18.787109375    
 2489-42-363     2252.0000000        2213.1049805        38.895019531    
 2489-55-349     2237.0000000        2199.4211426        37.578857422    
 2429-61-61      2229.0000000        2203.0954590        25.904541016    
 2429-66-25      2207.0000000        2182.3659668        24.634033203    
 2429-71-53      2208.0000000        2178.6054688        29.394531250    
 2457-22-65      2248.0000000        2264.1621094       -16.162109375    
 2457-26-341     2237.0000000        2256.4272461       -19.427246094    
 2457-31-335     2239.0000000        2243.4443359       -4.4443359375    
 2457-33-60      2232.0000000        2237.6218262       -5.6218261719    
 2457-42-363     2227.0000000        2210.7438965        16.256103516    
 2457-48-337     2219.0000000        2209.6323242        9.3676757812    
 2457-56-18      2213.0000000        2199.6916504        13.308349609    
 2457-61-47      2207.0000000        2185.1174316        21.882568359    
 2457-66-32      2182.0000000        2164.5627441        17.437255859    
 2457-71-14      2184.0000000        2160.2348633        23.765136719    
 2457-71-42      2182.0000000        2160.4545898        21.545410156    
 2457-71-365     2191.0000000        2163.4626465        27.537353516    
 2426-61-61      2226.0000000        2188.0668945        37.933105469    
 2426-66-25      2191.0000000        2166.7387695        24.261230469    
 2378-22-66      2269.0000000        2276.4187012       -7.4187011719    
 2378-26-341     2254.0000000        2267.6142578       -13.614257812    
 2378-31-335     2251.0000000        2251.2331543      -0.23315429688    
 2377-7-1        2301.0000000        2297.6264648        3.3735351562    
 2377-12-92      2285.0000000        2293.0925293       -8.0925292969    
 2382-1-365      2301.0000000        2291.3474121        9.6525878906    
 2369-16-364     2258.0000000        2276.4455566       -18.445556641    
 2397-10-255     2291.0000000        2310.3259277       -19.325927734    
 2381-66-32      2184.0000000        2177.9130859        6.0869140625    
 2368-56-25      2246.0000000        2225.6914062        20.308593750    
 2368-61-48      2216.0000000        2206.6777344        9.3222656250    
 2364-56-25      2246.0000000        2224.3300781        21.669921875    
 2364-61-48      2218.0000000        2205.5217285        12.478271484    
 2364-66-24      2182.0000000        2183.6354980       -1.6354980469    
 2364-71-14      2189.0000000        2184.9086914        4.0913085938    
 2364-71-365     2205.0000000        2190.2709961        14.729003906    
 2361-56-25      2233.0000000        2219.7966309        13.203369141    
 2361-61-48      2213.0000000        2201.2216797        11.778320312    
 2361-66-24      2179.0000000        2179.8281250      -0.82812500000    
 2361-71-14      2186.0000000        2181.4233398        4.5766601562    
 2361-71-365     2200.0000000        2186.0412598        13.958740234    
 2349-42-364     2247.0000000        2230.6572266        16.342773438    
 2349-48-341     2231.0000000        2229.0969238        1.9030761719    
 2349-56-18      2229.0000000        2223.0944824        5.9055175781    
 2349-61-48      2207.0000000        2203.9316406        3.0683593750    
 2349-66-24      2174.0000000        2182.2487793       -8.2487792969    
 2349-71-14      2184.0000000        2184.3850098      -0.38500976562    
 2349-71-365     2198.0000000        2189.3972168        8.6027832031    
 2422-32-60      2288.0000000        2282.3789062        5.6210937500    
 2422-33-60      2281.0000000        2277.1347656        3.8652343750    
 2422-42-363     2283.0000000        2247.5500488        35.449951172    
 2422-48-357     2271.0000000        2248.9206543        22.079345703    
 2422-55-349     2262.0000000        2244.1464844        17.853515625    
 2422-61-3       2255.0000000        2224.8134766        30.186523438    
 2406-22-65      2281.0000000        2303.1535645       -22.153564453    
 2396-16-298     2300.0000000        2308.6442871       -8.6442871094    
 2396-22-32      2300.0000000        2304.8334961       -4.8334960938    
 2396-27-10      2326.0000000        2295.1408691        30.859130859    
 2401-22-65      2282.0000000        2301.2238770       -19.223876953    
 2376-26-341     2266.0000000        2294.4802246       -28.480224609    
 2365-22-65      2290.0000000        2300.6806641       -10.680664062    
 2365-27-4       2327.0000000        2290.8840332        36.115966797    
 2335-56-18      2237.0000000        2226.6032715        10.396728516    
 2335-60-322     2219.0000000        2207.8100586        11.189941406    
 2335-65-326     2181.0000000        2185.0688477       -4.0688476562    
 2335-71-365     2205.0000000        2193.1584473        11.841552734    
 2348-56-18      2235.0000000        2227.3591309        7.6408691406    
 2348-61-48      2211.0000000        2209.0229492        1.9770507812    
 2348-66-24      2178.0000000        2189.2878418       -11.287841797    
 2348-71-365     2205.0000000        2196.2004395        8.7995605469    
 2347-42-364     2259.0000000        2241.8276367        17.172363281    
 2347-48-337     2252.0000000        2242.0148926        9.9851074219    
 2347-56-18      2242.0000000        2236.6704102        5.3295898438    
 2347-61-48      2222.0000000        2216.7634277        5.2365722656    
 2347-66-24      2187.0000000        2194.3281250       -7.3281250000    
 2380-61-48      2240.0000000        2223.8864746        16.113525391    
 2392-61-48      2242.0000000        2223.1904297        18.809570312    
 2391-61-48      2240.0000000        2224.2399902        15.760009766    
 2391-66-25      2195.0000000        2200.9543457       -5.9543457031    
 2374-66-40      2191.0000000        2201.1440430       -10.144042969    
 2374-71-365     2221.0000000        2210.1550293        10.844970703    
 2354-16-361     2331.0000000        2341.6289062       -10.628906250    
 2353-48-274     2274.0000000        2279.8469238       -5.8469238281    
 2352-22-65      2336.0000000        2350.2299805       -14.229980469    
 2351-66-45      2366.0000000        2290.7846680        75.215332031    
 2351-71-42      2367.0000000        2288.4616699        78.538330078    
 2351-71-365     2368.0000000        2288.1892090        79.810791016    
 2341-55-348     2402.0000000        2343.8264160        58.173583984    
 2341-66-45      2396.0000000        2308.5871582        87.412841797    
 2341-71-42      2399.0000000        2305.4333496        93.566650391    
 2341-71-365     2403.0000000        2305.7915039        97.208496094    
 2350-42-355     2373.0000000        2332.3540039        40.645996094    
 2350-48-355     2372.0000000        2337.2495117        34.750488281    
 2350-55-348     2373.0000000        2332.5002441        40.499755859    
 2350-61-3       2371.0000000        2315.6682129        55.331787109    
 2350-71-42      2367.0000000        2294.6608887        72.339111328    
 2350-71-365     2368.0000000        2293.9841309        74.015869141    
 2358-48-306     2396.0000000        2361.4895020        34.510498047    
 2215-1-357      2435.0000000        2428.4833984        6.5166015625    
 2215-6-295      2429.0000000        2428.9458008       5.41992187500E-02
 2215-10-349     2430.0000000        2428.8771973        1.1228027344    
 2215-22-68      2427.0000000        2427.8845215      -0.88452148438    
 2215-31-335     2427.0000000        2413.5837402        13.416259766    
 2215-33-1       2433.0000000        2410.3002930        22.699707031    
 2215-39-60      2425.0000000        2398.0695801        26.930419922    
 2215-42-356     2425.0000000        2392.4067383        32.593261719    
 2215-48-336     2428.0000000        2394.5546875        33.445312500    
 2164-48-337     2411.0000000        2376.0129395        34.987060547    
 2164-56-24      2419.0000000        2372.3928223        46.607177734    
 2164-61-54      2410.0000000        2354.2858887        55.714111328    
 2164-66-24      2417.0000000        2333.3149414        83.685058594    
 2164-71-41      2416.0000000        2334.9997559        81.000244141    
 2135-48-337     2421.0000000        2401.2385254        19.761474609    
 2135-56-24      2428.0000000        2396.2763672        31.723632812    
 2135-61-55      2415.0000000        2378.9831543        36.016845703    
 2135-66-26      2427.0000000        2356.9011230        70.098876953    
 2135-71-42      2427.0000000        2358.7160645        68.283935547    
 2238-56-23      2443.0000000        2367.5593262        75.440673828    
 2334-22-67      2386.0000000        2406.9409180       -20.940917969    
 2334-26-349     2386.0000000        2400.7448730       -14.744873047    
 2334-33-60      2381.0000000        2384.8134766       -3.8134765625    
 2334-42-363     2387.0000000        2362.1315918        24.868408203    
 2334-48-274     2394.0000000        2367.4658203        26.534179688    
 2334-55-321     2395.0000000        2362.2021484        32.797851562    
 2334-60-319     2396.0000000        2347.0090332        48.990966797    
 2334-65-326     2388.0000000        2329.7517090        58.248291016    
 2334-71-14      2393.0000000        2325.9853516        67.014648438    
 2334-71-42      2391.0000000        2326.0517578        64.948242188    
 2334-71-365     2396.0000000        2327.1296387        68.870361328    
 2225-55-321     2384.0000000        2344.2026367        39.797363281    
 2223-55-279     2360.0000000        2344.7241211        15.275878906    
 2223-61-47      2357.0000000        2319.4213867        37.578613281    
 2223-66-32      2375.0000000        2297.1962891        77.803710938    
 2223-71-14      2337.0000000        2298.1069336        38.893066406    
 2223-71-365     2364.0000000        2306.0971680        57.902832031    
 2224-55-321     2382.0000000        2344.8283691        37.171630859    
 2224-61-47      2358.0000000        2321.2145996        36.785400391    
 2224-66-32      2371.0000000        2298.7900391        72.209960938    
 2142-48-274     2338.0000000        2312.3623047        25.637695312    
 2150-48-306     2340.0000000        2313.7385254        26.261474609    
 2150-55-321     2336.0000000        2308.8884277        27.111572266    
 2141-48-274     2337.0000000        2310.9592285        26.040771484    
 2141-55-321     2328.0000000        2305.0471191        22.952880859    
 2141-61-47      2327.0000000        2284.5151367        42.484863281    
 2141-71-14      2313.0000000        2280.2480469        32.751953125    
 2141-71-365     2336.0000000        2283.5375977        52.462402344    
 2140-48-274     2358.0000000        2322.9130859        35.086914062    
 2140-55-321     2348.0000000        2317.6672363        30.332763672    
 2140-66-18      2338.0000000        2295.1274414        42.872558594    
 2209-27-11      2417.0000000        2397.9111328        19.088867188    
 2209-31-351     2416.0000000        2387.5205078        28.479492188    
 2209-37-343     2408.0000000        2372.7565918        35.243408203    
 2208-56-23      2417.0000000        2369.9987793        47.001220703    
 2208-60-321     2410.0000000        2352.1914062        57.808593750    
 2208-65-299     2408.0000000        2331.7111816        76.288818359    
 2208-71-32      2408.0000000        2331.6916504        76.308349609    
 2208-71-365     2407.0000000        2335.6281738        71.371826172    
 2206-48-274     2414.0000000        2372.6916504        41.308349609    
 2206-55-321     2407.0000000        2369.1037598        37.896240234    
 2206-61-47      2405.0000000        2350.2104492        54.789550781    
 2206-71-14      2394.0000000        2331.8623047        62.137695312    
 2206-71-365     2399.0000000        2335.3430176        63.656982422    
 2182-55-321     2385.0000000        2356.7199707        28.280029297    
 2174-55-279     2360.0000000        2358.1552734        1.8447265625    
 2174-60-319     2380.0000000        2335.8271484        44.172851562    
 2174-65-326     2355.0000000        2313.4873047        41.512695312    
 2174-71-14      2338.0000000        2314.4943848        23.505615234    
 2174-71-365     2373.0000000        2321.6735840        51.326416016    
 2181-55-321     2368.0000000        2358.4169922        9.5830078125    
 2181-61-47      2366.0000000        2336.9926758        29.007324219    
 2139-1-357      2407.0000000        2398.5234375        8.4765625000    
 2138-48-274     2392.0000000        2368.7524414        23.247558594    
 2138-55-321     2390.0000000        2365.9943848        24.005615234    
 2138-61-47      2391.0000000        2345.1948242        45.805175781    
 2138-66-24      2397.0000000        2323.2390137        73.760986328    
 2138-71-14      2366.0000000        2323.8471680        42.152832031    
 2138-71-365     2393.0000000        2331.6867676        61.313232422    
 2253-16-361     2366.0000000        2389.2902832       -23.290283203    
 2251-48-274     2395.0000000        2358.0800781        36.919921875    
 2251-55-321     2391.0000000        2356.9848633        34.015136719    
 2314-12-116     2371.0000000        2384.7165527       -13.716552734    
 2314-22-67      2372.0000000        2382.6918945       -10.691894531    
 2314-33-60      2367.0000000        2355.6894531        11.310546875    
 2290-7-322      2357.0000000        2384.5432129       -27.543212891    
 2290-10-32      2363.0000000        2380.5620117       -17.562011719    
 2290-42-364     2348.0000000        2324.9694824        23.030517578    
 2290-48-355     2356.0000000        2333.3591309        22.640869141    
 2290-55-348     2378.0000000        2331.5200195        46.479980469    
 2290-65-354     2361.0000000        2289.8701172        71.129882812    
 2290-71-42      2379.0000000        2289.9851074        89.014892578    
 2290-71-365     2357.0000000        2293.8437500        63.156250000    
 2286-42-357     2345.0000000        2328.7819824        16.218017578    
 2286-48-355     2344.0000000        2336.0446777        7.9553222656    
 2286-61-3       2351.0000000        2313.7465820        37.253417969    
 2286-66-45      2371.0000000        2293.6503906        77.349609375    
 2287-42-357     2358.0000000        2326.8117676        31.188232422    
 2287-61-3       2363.0000000        2313.1896973        49.810302734    
 2287-71-42      2383.0000000        2291.7541504        91.245849609    
 2287-71-365     2360.0000000        2296.1210938        63.878906250    
 2278-22-67      2363.0000000        2379.6777344       -16.677734375    
 2278-26-362     2379.0000000        2371.2619629        7.7380371094    
 2278-31-335     2357.0000000        2354.3842773        2.6157226562    
 2278-33-60      2364.0000000        2347.8083496        16.191650391    
 2278-48-274     2365.0000000        2329.2102051        35.789794922    
 2129-66-40      2194.0000000        2236.7714844       -42.771484375    
 2129-71-42      2229.0000000        2246.0800781       -17.080078125    
 2129-71-365     2235.0000000        2248.5319824       -13.531982422    
 2146-7-1        2375.0000000        2371.8093262        3.1906738281    
 2146-11-86      2363.0000000        2372.0600586       -9.0600585938    
 2146-22-67      2347.0000000        2360.3579102       -13.357910156    
 2146-37-263     2287.0000000        2303.3308105       -16.330810547    
 2147-42-363     2279.0000000        2288.1586914       -9.1586914062    
 2147-48-362     2265.0000000        2283.9287109       -18.928710938    
 2147-55-349     2260.0000000        2280.2536621       -20.253662109    
 2145-2-132      2385.0000000        2377.5256348        7.4743652344    
 2144-2-132      2390.0000000        2385.0439453        4.9560546875    
 2126-48-274     2297.0000000        2318.8408203       -21.840820312    
 2126-55-321     2282.0000000        2314.9069824       -32.906982422    
 2126-61-47      2279.0000000        2292.9040527       -13.904052734    
 2126-71-14      2274.0000000        2281.5539551       -7.5539550781    
 2126-71-365     2290.0000000        2286.4443359        3.5556640625    
 2315-10-262     2351.0000000        2362.4504395       -11.450439453    
 2288-10-262     2361.0000000        2367.2028809       -6.2028808594    
 2248-56-23      2268.0000000        2284.0190430       -16.019042969    
 2239-16-361     2347.0000000        2358.1601562       -11.160156250    
 2239-22-32      2337.0000000        2358.0581055       -21.058105469    
 2239-27-10      2328.0000000        2346.0183105       -18.018310547    
 2239-56-23      2274.0000000        2287.8996582       -13.899658203    
 2267-56-25      2257.0000000        2261.2795410       -4.2795410156    
 2255-22-65      2326.0000000        2346.2463379       -20.246337891    
 2255-32-60      2302.0000000        2307.9079590       -5.9079589844    
 2255-38-60      2294.0000000        2282.0839844        11.916015625    
 2240-56-25      2269.0000000        2288.8872070       -19.887207031    
 2240-66-32      2195.0000000        2242.0026855       -47.002685547    
 2240-71-54      2245.0000000        2244.9924316       7.56835937500E-03
 2114-61-49      2224.0000000        2246.3168945       -22.316894531    
 2114-66-40      2195.0000000        2229.7202148       -34.720214844    
 2114-71-42      2225.0000000        2237.9655762       -12.965576172    
 2114-71-365     2238.0000000        2242.6435547       -4.6435546875    
 2191-56-23      2242.0000000        2270.1750488       -28.175048828    
 2191-61-61      2224.0000000        2248.7207031       -24.720703125    
 2191-66-25      2194.0000000        2229.9746094       -35.974609375    
 2210-48-334     2283.0000000        2293.7995605       -10.799560547    
 2210-55-321     2270.0000000        2291.8588867       -21.858886719    
 2210-61-47      2259.0000000        2268.6020508       -9.6020507812    
 2210-66-24      2229.0000000        2248.6618652       -19.661865234    
 2210-71-42      2225.0000000        2254.5363770       -29.536376953    
 2210-71-365     2238.0000000        2260.7543945       -22.754394531    
 2162-48-274     2254.0000000        2265.5810547       -11.581054688    
 2162-65-354     2184.0000000        2221.3999023       -37.399902344    
 2162-71-42      2213.0000000        2231.8041992       -18.804199219    
 2162-71-365     2224.0000000        2235.5617676       -11.561767578    
 2298-61-48      2210.0000000        2215.6184082       -5.6184082031    
 2298-66-24      2176.0000000        2196.4831543       -20.483154297    
 2298-71-14      2191.0000000        2199.1789551       -8.1789550781    
 2298-71-365     2205.0000000        2204.1125488       0.88745117188    
 2250-22-69      2301.0000000        2305.4299316       -4.4299316406    
 2250-27-61      2307.0000000        2293.8295898        13.170410156    
 2227-42-363     2240.0000000        2229.1738281        10.826171875    
 2227-48-365     2217.0000000        2221.1308594       -4.1308593750    
 2227-55-349     2199.0000000        2215.4079590       -16.407958984    
 2227-61-54      2174.0000000        2194.9785156       -20.978515625    
 2227-66-45      2151.0000000        2178.9094238       -27.909423828    
 2227-71-49      2170.0000000        2185.9943848       -15.994384766    
 2227-71-365     2178.0000000        2187.9992676       -9.9992675781    
 2152-22-68      2316.0000000        2318.7172852       -2.7172851562    
 2263-10-144     2292.0000000        2292.0048828      -4.88281250000E-03
 2276-22-61      2265.0000000        2274.2788086       -9.2788085938    
 2276-26-301     2254.0000000        2264.9067383       -10.906738281    
 2276-48-362     2208.0000000        2207.5583496       0.44165039062    
 2276-55-349     2193.0000000        2199.1835938       -6.1835937500    
 2276-61-33      2176.0000000        2181.6611328       -5.6611328125    
 2276-66-32      2153.0000000        2163.1179199       -10.117919922    
 2276-71-14      2154.0000000        2165.8066406       -11.806640625    
 2276-71-41      2163.0000000        2165.6877441       -2.6877441406    
 2276-71-365     2168.0000000        2166.9953613        1.0046386719    
 2229-61-33      2163.0000000        2182.4086914       -19.408691406    
 2229-66-32      2144.0000000        2165.6018066       -21.601806641    
 2229-71-14      2160.0000000        2171.4660645       -11.466064453    
 2229-71-41      2160.0000000        2171.4108887       -11.410888672    
 2229-71-365     2165.0000000        2172.6481934       -7.6481933594    
 2235-42-335     2226.0000000        2216.2795410        9.7204589844    
 2130-8-49       2299.0000000        2298.9194336       8.05664062500E-02
 2130-12-58      2285.0000000        2292.1320801       -7.1320800781    
 2130-17-87      2271.0000000        2282.9377441       -11.937744141    
 2130-22-79      2267.0000000        2271.3037109       -4.3037109375    
 2130-32-60      2246.0000000        2244.0683594        1.9316406250    
 2130-42-363     2218.0000000        2212.4028320        5.5971679688    
 2130-48-362     2201.0000000        2200.5554199       0.44458007812    
 2153-48-362     2195.0000000        2200.4062500       -5.4062500000    
 2153-55-349     2174.0000000        2190.3806152       -16.380615234    
 2153-61-33      2157.0000000        2173.7539062       -16.753906250    
 2153-71-41      2153.0000000        2163.6113281       -10.611328125    
 2153-71-365     2157.0000000        2163.9921875       -6.9921875000    
 2217-66-32      2149.0000000        2172.1520996       -23.152099609    
 2231-22-65      2279.0000000        2283.9755859       -4.9755859375    
 2231-42-363     2229.0000000        2219.3496094        9.6503906250    
 2231-48-362     2209.0000000        2210.2250977       -1.2250976562    
 2231-55-349     2193.0000000        2204.1174316       -11.117431641    
 2231-61-54      2170.0000000        2184.2453613       -14.245361328    
 2231-66-49      2150.0000000        2167.1884766       -17.188476562    
 2231-71-41      2166.0000000        2173.7429199       -7.7429199219    
 2231-71-365     2172.0000000        2174.8637695       -2.8637695312    
 2228-42-363     2226.0000000        2219.6604004        6.3395996094    
 2228-48-362     2207.0000000        2210.4467773       -3.4467773438    
 2228-55-349     2190.0000000        2204.3574219       -14.357421875    
 2228-61-54      2167.0000000        2184.4753418       -17.475341797    
 2228-66-49      2146.0000000        2167.6113281       -21.611328125    
 2228-71-41      2163.0000000        2174.2370605       -11.237060547    
 2228-71-365     2169.0000000        2175.5124512       -6.5124511719    
 2056-12-58      2310.0000000        2310.4770508      -0.47705078125    
 2056-22-66      2295.0000000        2290.6059570        4.3940429688    
 2056-27-61      2284.0000000        2277.6193848        6.3806152344    
 2032-7-32       2315.0000000        2310.1154785        4.8845214844    
 2032-12-58      2298.0000000        2303.5493164       -5.5493164062    
 2032-32-83      2257.0000000        2252.0915527        4.9084472656    
 2033-42-363     2223.0000000        2217.7966309        5.2033691406    
 2033-48-362     2197.0000000        2202.2004395       -5.2004394531    
 2033-56-34      2161.0000000        2188.9531250       -27.953125000    
 2033-61-56      2153.0000000        2173.3745117       -20.374511719    
 2033-66-54      2142.0000000        2161.5156250       -19.515625000    
 2033-71-49      2159.0000000        2172.0742188       -13.074218750    
 2033-71-365     2161.0000000        2172.6901855       -11.690185547    
 2000-37-34      2238.0000000        2233.5434570        4.4565429688    
 2000-55-349     2170.0000000        2189.3132324       -19.313232422    
 2004-48-357     2201.0000000        2205.6477051       -4.6477050781    
 2004-71-49      2165.0000000        2174.5910645       -9.5910644531    
 2004-71-365     2168.0000000        2175.4665527       -7.4665527344    
 2019-17-82      2303.0000000        2304.4526367       -1.4526367188    
 2019-22-69      2296.0000000        2293.4123535        2.5876464844    
 2019-42-335     2229.0000000        2222.3725586        6.6274414062    
 2019-48-365     2203.0000000        2206.1169434       -3.1169433594    
 2019-66-40      2144.0000000        2167.4711914       -23.471191406    
 2019-71-49      2164.0000000        2180.3793945       -16.379394531    
 2019-71-365     2169.0000000        2181.3930664       -12.393066406    
 2015-66-40      2141.0000000        2167.9128418       -26.912841797    
 2015-71-49      2161.0000000        2180.0266113       -19.026611328    
 2015-71-365     2166.0000000        2181.0842285       -15.084228516    
 2023-42-363     2228.0000000        2222.7875977        5.2124023438    
 2023-48-365     2202.0000000        2207.6008301       -5.6008300781    
 2023-55-349     2167.0000000        2195.2036133       -28.203613281    
 2023-61-54      2153.0000000        2178.7275391       -25.727539062    
 2023-71-49      2161.0000000        2180.6342773       -19.634277344    
 2023-71-365     2166.0000000        2181.6550293       -15.655029297    
 2060-48-365     2222.0000000        2224.2338867       -2.2338867188    
 2060-55-356     2188.0000000        2215.2424316       -27.242431641    
 2060-61-54      2164.0000000        2195.5534668       -31.553466797    
 2060-66-19      2151.0000000        2187.9938965       -36.993896484    
 2060-71-42      2177.0000000        2204.3215332       -27.321533203    
 2060-71-365     2185.0000000        2206.1455078       -21.145507812    
 2115-22-66      2303.0000000        2305.5214844       -2.5214843750    
 2105-42-363     2241.0000000        2225.3322754        15.667724609    
 2105-48-362     2214.0000000        2213.4853516       0.51464843750    
 2105-56-33      2183.0000000        2206.7309570       -23.730957031    
 2105-61-33      2164.0000000        2187.1938477       -23.193847656    
 2105-66-32      2144.0000000        2175.4382324       -31.438232422    
 2105-71-42      2167.0000000        2189.1738281       -22.173828125    
 2105-71-365     2174.0000000        2190.6142578       -16.614257812    
 2098-65-354     2136.0000000        2175.9187012       -39.918701172    
 2098-71-42      2167.0000000        2189.4187012       -22.418701172    
 2098-71-365     2174.0000000        2190.9997559       -16.999755859    
 2103-42-363     2240.0000000        2223.9023438        16.097656250    
 2103-48-362     2214.0000000        2211.9057617        2.0942382812    
 2103-61-33      2163.0000000        2185.7507324       -22.750732422    
 2103-66-32      2143.0000000        2173.9575195       -30.957519531    
 2103-71-42      2166.0000000        2187.6992188       -21.699218750    
 2103-71-365     2173.0000000        2189.0290527       -16.029052734    
 2055-22-66      2304.0000000        2309.2099609       -5.2099609375    
 2055-32-83      2278.0000000        2271.5312500        6.4687500000    
 2014-12-66      2336.0000000        2335.8032227       0.19677734375    
 2014-22-69      2316.0000000        2316.6303711      -0.63037109375    
 2014-27-3       2305.0000000        2302.2692871        2.7307128906    
 2014-42-363     2244.0000000        2225.5510254        18.448974609    
 2014-48-357     2217.0000000        2210.1770020        6.8229980469    
 2014-66-19      2145.0000000        2178.1271973       -33.127197266    
 2014-71-42      2170.0000000        2198.3327637       -28.332763672    
 2014-71-365     2177.0000000        2199.3454590       -22.345458984    
 2013-42-363     2241.0000000        2228.7619629        12.238037109    
 2013-48-357     2214.0000000        2213.1855469       0.81445312500    
 2013-55-350     2174.0000000        2200.6738281       -26.673828125    
 2013-61-33      2152.0000000        2183.0510254       -31.051025391    
 2013-66-19      2142.0000000        2179.6850586       -37.685058594    
 2013-71-42      2167.0000000        2198.6184082       -31.618408203    
 2013-71-365     2174.0000000        2199.9050293       -25.905029297    
 1974-22-79      2318.0000000        2316.0505371        1.9494628906    
 1974-26-307     2301.0000000        2303.5593262       -2.5593261719    
 1974-42-363     2246.0000000        2227.9890137        18.010986328    
 1974-48-357     2218.0000000        2209.8469238        8.1530761719    
 1966-42-363     2245.0000000        2229.4255371        15.574462891    
 1966-48-350     2223.0000000        2211.1845703        11.815429688    
 1966-55-350     2165.0000000        2190.7487793       -25.748779297    
 1966-61-33      2154.0000000        2176.1889648       -22.188964844    
 1966-66-19      2145.0000000        2177.2819824       -32.281982422    
 1966-71-49      2171.0000000        2197.5690918       -26.569091797    
 1966-71-365     2177.0000000        2198.9531250       -21.953125000    
 1972-71-49      2170.0000000        2199.8117676       -29.811767578    
 1972-71-365     2176.0000000        2201.3613281       -25.361328125    
 2036-11-305     2344.0000000        2360.5495605       -16.549560547    
 2035-48-365     2231.0000000        2249.3122559       -18.312255859    
 2035-56-18      2185.0000000        2235.9074707       -50.907470703    
 2035-61-54      2162.0000000        2217.5517578       -55.551757812    
 2035-66-45      2155.0000000        2215.0935059       -60.093505859    
 2035-71-42      2184.0000000        2228.6105957       -44.610595703    
 2035-71-365     2192.0000000        2230.6076660       -38.607666016    
 1999-22-69      2326.0000000        2327.0495605       -1.0495605469    
 1999-26-349     2314.0000000        2314.2189941      -0.21899414062    
 1999-32-73      2299.0000000        2292.6462402        6.3537597656    
 1999-42-363     2250.0000000        2246.8105469        3.1894531250    
 1999-48-357     2223.0000000        2229.0249023       -6.0249023438    
 1999-55-353     2185.0000000        2212.0795898       -27.079589844    
 1999-60-309     2168.0000000        2194.9523926       -26.952392578    
 1999-66-28      2150.0000000        2193.7561035       -43.756103516    
 1999-71-42      2176.0000000        2210.6354980       -34.635498047    
 1999-71-365     2184.0000000        2212.7160645       -28.716064453    
 1957-12-66      2349.0000000        2350.2751465       -1.2751464844    
 1957-22-79      2326.0000000        2328.2744141       -2.2744140625    
 1957-27-3       2317.0000000        2316.0217285       0.97827148438    
 1957-32-60      2301.0000000        2294.8481445        6.1518554688    
 1957-42-363     2251.0000000        2249.7841797        1.2158203125    
 1957-48-357     2224.0000000        2229.2373047       -5.2373046875    
 1957-55-353     2183.0000000        2208.0583496       -25.058349609    
 1957-60-306     2159.0000000        2191.6945801       -32.694580078    
 1957-66-19      2149.0000000        2195.2236328       -46.223632812    
 1957-71-42      2176.0000000        2212.3500977       -36.350097656    
 1957-71-365     2183.0000000        2214.6093750       -31.609375000    
 2125-48-306     2306.0000000        2313.6313477       -7.6313476562    
 2125-55-321     2297.0000000        2310.1186523       -13.118652344    
 2086-48-274     2286.0000000        2289.0971680       -3.0971679688    
 2086-56-48      2275.0000000        2279.7932129       -4.7932128906    
 2086-61-47      2260.0000000        2260.5930176      -0.59301757812    
 2086-66-26      2236.0000000        2255.1027832       -19.102783203    
 2086-71-14      2266.0000000        2263.1232910        2.8767089844    
 2086-71-365     2276.0000000        2265.9572754        10.042724609    
 2102-26-349     2337.0000000        2348.9028320       -11.902832031    
 2102-48-274     2272.0000000        2284.9580078       -12.958007812    
 2102-55-321     2250.0000000        2277.3891602       -27.389160156    
 2102-60-319     2236.0000000        2256.9545898       -20.954589844    
 2102-66-1       2213.0000000        2247.5253906       -34.525390625    
 2102-71-42      2243.0000000        2256.3479004       -13.347900391    
 2102-71-365     2253.0000000        2258.8481445       -5.8481445312    
 2054-39-31      2277.0000000        2295.3098145       -18.309814453    
 2054-48-357     2251.0000000        2267.7641602       -16.764160156    
 2054-55-349     2217.0000000        2257.5327148       -40.532714844    
 2054-61-3       2190.0000000        2238.2778320       -48.277832031    
 2054-66-40      2178.0000000        2235.9050293       -57.905029297    
 2054-71-42      2206.0000000        2246.4572754       -40.457275391    
 2054-71-365     2214.0000000        2248.6076660       -34.607666016    
 2063-22-69      2354.0000000        2367.1962891       -13.196289062    
 1996-11-86      2369.0000000        2372.8107910       -3.8107910156    
 1997-22-60      2344.0000000        2350.9885254       -6.9885253906    
 1997-32-60      2306.0000000        2318.0773926       -12.077392578    
 1997-55-349     2199.0000000        2241.7795410       -42.779541016    
 1997-65-354     2163.0000000        2227.2253418       -64.225341797    
 1997-71-42      2191.0000000        2239.0874023       -48.087402344    
 1997-71-365     2199.0000000        2241.2785645       -42.278564453    
 1949-48-334     2226.0000000        2248.2451172       -22.245117188    
 1949-56-17      2197.0000000        2235.1276855       -38.127685547    
 1942-56-17      2198.0000000        2232.0798340       -34.079833984    
 1942-61-53      2161.0000000        2213.7673340       -52.767333984    
 1942-66-19      2167.0000000        2224.4516602       -57.451660156    
 1942-71-42      2192.0000000        2237.5446777       -45.544677734    
 1942-71-365     2199.0000000        2239.8327637       -40.832763672    
 1943-33-314     2310.0000000        2293.4963379        16.503662109    
 2078-65-355     2293.0000000        2294.5527344       -1.5527343750    
 2078-71-42      2295.0000000        2300.2502441       -5.2502441406    
 2078-71-365     2311.0000000        2302.5947266        8.4052734375    
 2072-16-364     2386.0000000        2393.5786133       -7.5786132812    
 2072-27-10      2370.0000000        2380.3344727       -10.334472656    
 2030-42-362     2302.0000000        2326.2033691       -24.203369141    
 2030-48-357     2279.0000000        2310.2275391       -31.227539062    
 2030-55-348     2271.0000000        2304.3154297       -33.315429688    
 2030-61-3       2261.0000000        2288.5258789       -27.525878906    
 2030-65-355     2258.0000000        2283.7180176       -25.718017578    
 2030-71-42      2270.0000000        2289.9794922       -19.979492188    
 2030-71-365     2276.0000000        2291.3991699       -15.399169922    
 2082-22-32      2373.0000000        2383.4365234       -10.436523438    
 2081-8-101      2392.0000000        2389.1882324        2.8117675781    
 2081-12-109     2384.0000000        2386.7561035       -2.7561035156    
 2081-22-68      2370.0000000        2376.4982910       -6.4982910156    
 2081-42-364     2318.0000000        2315.9138184        2.0861816406    
 2081-56-18      2301.0000000        2297.4377441        3.5622558594    
 2081-71-13      2288.0000000        2279.9707031        8.0292968750    
 2081-71-365     2286.0000000        2282.9265137        3.0734863281    
 2101-8-51       2389.0000000        2393.4226074       -4.4226074219    
 2101-11-86      2381.0000000        2391.1638184       -10.163818359    
 2101-22-32      2365.0000000        2383.9572754       -18.957275391    
 2101-27-10      2363.0000000        2370.7500000       -7.7500000000    
 1986-27-81      2345.0000000        2348.8496094       -3.8496093750    
 1986-42-362     2280.0000000        2295.2937012       -15.293701172    
 1986-48-334     2249.0000000        2268.3298340       -19.329833984    
 1986-55-321     2221.0000000        2259.6564941       -38.656494141    
 1986-61-47      2189.0000000        2241.2119141       -52.211914062    
 1986-66-32      2184.0000000        2247.0534668       -63.053466797    
 1986-71-14      2211.0000000        2256.8911133       -45.891113281    
 1986-71-42      2210.0000000        2257.0617676       -47.061767578    
 1986-71-365     2216.0000000        2258.9121094       -42.912109375    
 1956-32-83      2331.0000000        2336.0646973       -5.0646972656    
 1956-37-34      2320.0000000        2314.6979980        5.3020019531    
 1948-48-274     2256.0000000        2279.0200195       -23.020019531    
 2117-8-182      2421.0000000        2435.9165039       -14.916503906    
 2093-66-26      2423.0000000        2354.5410156        68.458984375    
 2071-16-364     2400.0000000        2398.2209473        1.7790527344    
 2053-56-33      2294.0000000        2326.2006836       -32.200683594    
 2053-65-355     2269.0000000        2298.8913574       -29.891357422    
 2053-71-43      2283.0000000        2303.4118652       -20.411865234    
 2053-71-365     2293.0000000        2305.1528320       -12.152832031    
 2046-61-3       2256.0000000        2311.4233398       -55.423339844    
 2046-65-355     2242.0000000        2300.9470215       -58.947021484    
 2046-71-49      2264.0000000        2305.5812988       -41.581298828    
 2046-71-365     2270.0000000        2306.4082031       -36.408203125    
 2029-66-45      2227.0000000        2290.5322266       -63.532226562    
 2029-71-43      2250.0000000        2296.0148926       -46.014892578    
 2029-71-365     2255.0000000        2296.8510742       -41.851074219    
 2026-71-43      2248.0000000        2300.7038574       -52.703857422    
 2026-71-365     2253.0000000        2301.3181152       -48.318115234    
 2028-71-43      2251.0000000        2300.7768555       -49.776855469    
 2028-71-365     2256.0000000        2301.5227051       -45.522705078    
 2048-56-33      2303.0000000        2333.2192383       -30.219238281    
 2048-65-355     2301.0000000        2311.1633301       -10.163330078    
 2048-71-49      2296.0000000        2317.1047363       -21.104736328    
 2048-71-365     2315.0000000        2319.1933594       -4.1933593750    
 2049-55-347     2298.0000000        2328.5957031       -30.595703125    
 2049-65-355     2294.0000000        2306.9890137       -12.989013672    
 2049-71-43      2294.0000000        2312.8874512       -18.887451172    
 2049-71-365     2308.0000000        2314.9291992       -6.9291992188    
 1995-22-69      2376.0000000        2389.0202637       -13.020263672    
 1995-26-280     2360.0000000        2375.3645020       -15.364501953    
 1995-42-355     2298.0000000        2329.4533691       -31.453369141    
 1995-48-357     2272.0000000        2309.3505859       -37.350585938    
 1995-56-17      2243.0000000        2300.3107910       -57.310791016    
 1995-61-3       2216.0000000        2287.8728027       -71.872802734    
 1995-65-355     2209.0000000        2285.6447754       -76.644775391    
 1995-71-43      2234.0000000        2291.9670410       -57.967041016    
 1995-71-365     2238.0000000        2292.8005371       -54.800537109    
 1947-22-79      2368.0000000        2379.9931641       -11.993164062    
 1947-26-349     2357.0000000        2364.7084961       -7.7084960938    
 1947-32-73      2330.0000000        2349.5905762       -19.590576172    
 1947-39-31      2300.0000000        2326.4738770       -26.473876953    
 1947-48-355     2258.0000000        2287.4409180       -29.440917969    
 1947-55-348     2229.0000000        2276.6289062       -47.628906250    
 1947-61-3       2202.0000000        2265.0488281       -63.048828125    
 1947-66-1       2200.0000000        2269.8269043       -69.826904297    
 1947-71-43      2220.0000000        2277.7207031       -57.720703125    
 1947-71-365     2224.0000000        2278.9841309       -54.984130859    
 1985-56-25      2240.0000000        2305.5883789       -65.588378906    
 1985-66-33      2212.0000000        2291.7812500       -79.781250000    
 1985-71-42      2234.0000000        2298.5600586       -64.560058594    
 2017-42-363     2298.0000000        2326.1896973       -28.189697266    
 2017-48-337     2272.0000000        2304.3916016       -32.391601562    
 2017-56-24      2232.0000000        2295.6013184       -63.601318359    
 2017-61-55      2217.0000000        2282.1613770       -65.161376953    
 2017-66-24      2211.0000000        2283.0483398       -72.048339844    
 2017-71-42      2234.0000000        2290.1076660       -56.107666016    
 1941-16-364     2401.0000000        2413.7370605       -12.737060547    
 2339-1-365      2477.0000000        2485.2390137       -8.2390136719    
 2339-12-113     2470.0000000        2490.2485352       -20.248535156    
 2339-22-74      2475.0000000        2492.7602539       -17.760253906    
 2435-11-80      2546.0000000        2550.1352539       -4.1352539062    
 2435-22-72      2542.0000000        2554.9384766       -12.938476562    
 2443-48-336     2547.0000000        2570.5903320       -23.590332031    
 2443-56-20      2553.0000000        2568.0207520       -15.020751953    
 2443-61-54      2557.0000000        2557.9934082      -0.99340820312    
 2443-66-24      2554.0000000        2543.7592773        10.240722656    
 2443-71-42      2576.0000000        2537.1853027        38.814697266    
 2379-22-74      2529.0000000        2564.6887207       -35.688720703    
 2379-42-356     2540.0000000        2584.2629395       -44.262939453    
 2379-48-336     2543.0000000        2585.6108398       -42.610839844    
 2379-56-19      2542.0000000        2589.3374023       -47.337402344    
 2379-61-55      2541.0000000        2569.5126953       -28.512695312    
 2379-66-27      2540.0000000        2557.2282715       -17.228271484    
 2379-71-42      2542.0000000        2553.8825684       -11.882568359    
 2375-42-357     2537.0000000        2584.3308105       -47.330810547    
 2375-48-350     2537.0000000        2584.9291992       -47.929199219    
 2375-55-348     2533.0000000        2589.6271973       -56.627197266    
 2375-61-48      2534.0000000        2568.2666016       -34.266601562    
 2375-65-350     2532.0000000        2555.0319824       -23.031982422    
 2375-71-55      2534.0000000        2552.9299316       -18.929931641    
 2375-71-365     2537.0000000        2556.1745605       -19.174560547    
 2338-22-74      2520.0000000        2555.1477051       -35.147705078    
 2338-48-355     2525.0000000        2575.1276855       -50.127685547    
 2338-56-5       2527.0000000        2579.9543457       -52.954345703    
 2338-61-48      2518.0000000        2558.0410156       -40.041015625    
 2338-65-350     2512.0000000        2541.4067383       -29.406738281    
 2338-71-55      2514.0000000        2542.6394043       -28.639404297    
 2338-71-365     2515.0000000        2546.3901367       -31.390136719    
 2205-22-74      2581.0000000        2578.0336914        2.9663085938    
 2200-22-85      2588.0000000        2580.2172852        7.7827148438    
 2189-61-55      2613.0000000        2579.7431641        33.256835938    
 2173-61-60      2348.0000000        2548.1320801       -200.13208008    
 2323-22-74      2524.0000000        2551.6740723       -27.674072266    
 2193-48-336     2511.0000000        2520.7761230       -9.7761230469    
 2193-56-19      2510.0000000        2517.3415527       -7.3415527344    
 2193-61-55      2497.0000000        2506.7937012       -9.7937011719    
 2193-66-27      2479.0000000        2488.5434570       -9.5434570312    
 2193-71-42      2474.0000000        2490.3232422       -16.323242188    
 2100-12-113     2520.0000000        2523.0632324       -3.0632324219    
 2100-22-75      2520.0000000        2523.3698730       -3.3698730469    
 2100-42-357     2510.0000000        2509.6586914       0.34130859375    
 2100-48-336     2507.0000000        2513.0507812       -6.0507812500    
 2100-55-347     2504.0000000        2505.6699219       -1.6699218750    
 2100-61-48      2491.0000000        2498.1984863       -7.1984863281    
 2100-65-356     2472.0000000        2481.3349609       -9.3349609375    
 2100-71-42      2467.0000000        2478.3439941       -11.343994141    
 2100-71-54      2466.0000000        2478.2934570       -12.293457031    
 2100-71-365     2471.0000000        2477.2846680       -6.2846679688    
 2324-27-11      2564.0000000        2551.6950684        12.304931641    
 2324-38-91      2574.0000000        2551.0593262        22.940673828    
 2324-42-356     2520.0000000        2560.5371094       -40.537109375    
 2324-56-20      2523.0000000        2562.2099609       -39.209960938    
 2324-66-28      2504.0000000        2531.5959473       -27.595947266    
 2324-71-63      2498.0000000        2532.0781250       -34.078125000    
 2285-22-74      2515.0000000        2539.8496094       -24.849609375    
 2285-32-67      2518.0000000        2545.7199707       -27.719970703    
 2285-38-60      2513.0000000        2543.6232910       -30.623291016    
 2285-71-63      2515.0000000        2522.7570801       -7.7570800781    
 2119-42-357     2493.0000000        2496.2775879       -3.2775878906    
 2119-48-355     2494.0000000        2497.9687500       -3.9687500000    
 2119-55-348     2502.0000000        2494.8144531        7.1855468750    
 2119-61-49      2485.0000000        2480.4602051        4.5397949219    
 2119-71-55      2505.0000000        2458.5627441        46.437255859    
 2119-71-365     2487.0000000        2460.9570312        26.042968750    
 2184-33-274     2510.0000000        2520.4470215       -10.447021484    
 2179-33-26      2473.0000000        2480.1540527       -7.1540527344    
 2179-48-337     2408.0000000        2473.5546875       -65.554687500    
 2179-56-20      2452.0000000        2468.1369629       -16.136962891    
 2179-66-28      2429.0000000        2437.7551270       -8.7551269531    
 2297-42-355     2484.0000000        2515.3249512       -31.324951172    
 2297-48-336     2484.0000000        2516.9277344       -32.927734375    
 2297-56-20      2475.0000000        2513.6650391       -38.665039062    
 2297-61-54      2466.0000000        2501.6252441       -35.625244141    
 2297-66-21      2455.0000000        2485.4528809       -30.452880859    
 2297-71-41      2466.0000000        2480.0427246       -14.042724609    
 2185-42-357     2455.0000000        2460.1862793       -5.1862792969    
 2185-48-355     2455.0000000        2460.2714844       -5.2714843750    
 2185-55-347     2455.0000000        2456.8952637       -1.8952636719    
 2185-66-45      2454.0000000        2424.8032227        29.196777344    
 2185-71-344     2454.0000000        2425.8361816        28.163818359    
 2134-16-361     2462.0000000        2462.5192871      -0.51928710938    
 2134-22-32      2459.0000000        2462.4567871       -3.4567871094    
 2134-27-11      2465.0000000        2460.8198242        4.1801757812    
 2134-48-357     2452.0000000        2443.3654785        8.6345214844    
 2134-55-347     2458.0000000        2438.6164551        19.383544922    
 2134-66-45      2458.0000000        2407.4919434        50.508056641    
 2134-71-344     2450.0000000        2409.4960938        40.503906250    
 2091-61-55      2458.0000000        2420.7722168        37.227783203    
 2091-66-26      2475.0000000        2395.2438965        79.756103516    
 2091-71-55      2473.0000000        2395.8776855        77.122314453    
 2097-48-337     2447.0000000        2385.8681641        61.131835938    
 2097-56-23      2454.0000000        2380.2888184        73.711181641    
 2097-66-26      2455.0000000        2343.7316895        111.26831055    
 2097-71-55      2455.0000000        2346.9152832        108.08471680    
 2068-12-281     2453.0000000        2461.1494141       -8.1494140625    
 2070-48-357     2440.0000000        2442.6081543       -2.6081542969    
 2070-55-348     2456.0000000        2438.4558105        17.544189453    
 2070-60-348     2441.0000000        2428.9399414        12.060058594    
 2070-66-1       2451.0000000        2405.0380859        45.961914062    
 2070-71-365     2433.0000000        2407.3564453        25.643554688    
 2027-39-31      2345.0000000        2404.4494629       -59.449462891    
 2025-66-26      2299.0000000        2356.1713867       -57.171386719    
 2025-71-55      2304.0000000        2359.2053223       -55.205322266    
 2010-32-67      2364.0000000        2397.3117676       -33.311767578    
 1954-32-67      2376.0000000        2432.7800293       -56.780029297    
 1954-48-355     2305.0000000        2400.7976074       -95.797607422    
 1954-55-347     2293.0000000        2395.8220215       -102.82202148    
 1954-66-45      2266.0000000        2372.0700684       -106.07006836    
 1954-71-344     2283.0000000        2373.1093750       -90.109375000    
 1963-32-85      2370.0000000        2421.6953125       -51.695312500    
 1963-42-357     2326.0000000        2395.9536133       -69.953613281    
 1963-48-355     2304.0000000        2381.9101562       -77.910156250    
 1963-55-348     2291.0000000        2380.1921387       -89.192138672    
 1963-61-49      2274.0000000        2372.0280762       -98.028076172    
 1963-65-356     2263.0000000        2360.2687988       -97.268798828    
 1963-71-365     2282.0000000        2361.2822266       -79.282226562    
 2090-27-11      2485.0000000        2479.5593262        5.4406738281    
 2065-66-45      2433.0000000        2417.1430664        15.856933594    
 2065-71-365     2441.0000000        2417.6826172        23.317382812    
 2003-71-365     2445.0000000        2416.0717773        28.928222656    
 1984-42-355     2470.0000000        2456.2451172        13.754882812    
 1984-48-336     2463.0000000        2457.4667969        5.5332031250    
 2116-65-350     2453.0000000        2445.6589355        7.3410644531    
 2047-56-19      2480.0000000        2480.7663574      -0.76635742188    
 2047-61-55      2445.0000000        2464.1423340       -19.142333984    
 2047-66-21      2418.0000000        2441.6208496       -23.620849609    
 2044-56-19      2475.0000000        2472.7583008        2.2416992188    
 2044-61-55      2440.0000000        2455.9321289       -15.932128906    
 2044-66-21      2413.0000000        2433.6342773       -20.634277344    
 2044-71-41      2429.0000000        2431.1159668       -2.1159667969    
 2018-34-212     2503.0000000        2486.3962402        16.603759766    
 2012-1-52       2487.0000000        2484.8161621        2.1838378906    
 2012-42-335     2470.0000000        2466.1650391        3.8349609375    
 2012-48-355     2465.0000000        2469.5690918       -4.5690917969    
 2012-55-348     2470.0000000        2461.9401855        8.0598144531    
 2012-66-1       2417.0000000        2422.6650391       -5.6650390625    
 2012-71-365     2440.0000000        2424.7526855        15.247314453    
 1979-56-23      2478.0000000        2461.3986816        16.601318359    
 1979-61-55      2438.0000000        2445.1091309       -7.1091308594    
 2002-16-361     2488.0000000        2496.6350098       -8.6350097656    
 2002-27-12      2490.0000000        2496.8605957       -6.8605957031    
 1961-56-23      2472.0000000        2452.7395020        19.260498047    
 1961-66-26      2406.0000000        2417.7905273       -11.790527344    
 1961-71-41      2420.0000000        2419.4106445       0.58935546875    
 2080-42-356     2511.0000000        2503.8857422        7.1142578125    
 2080-48-350     2506.0000000        2507.5463867       -1.5463867188    
 2080-55-347     2504.0000000        2500.9633789        3.0366210938    
 2080-66-45      2465.0000000        2473.2111816       -8.2111816406    
 2042-55-347     2498.0000000        2504.0998535       -6.0998535156    
 2042-65-356     2451.0000000        2476.8071289       -25.807128906    
 2042-71-54      2447.0000000        2475.8537598       -28.853759766    
 2042-71-365     2454.0000000        2474.7619629       -20.761962891    
 1964-33-38      2501.0000000        2507.8212891       -6.8212890625    
 1976-42-357     2465.0000000        2481.3464355       -16.346435547    
 1976-48-355     2503.0000000        2485.1323242        17.867675781    
 1976-55-348     2474.0000000        2478.7546387       -4.7546386719    
 1976-60-305     2439.0000000        2464.7636719       -25.763671875    
 1976-66-1       2402.0000000        2441.7692871       -39.769287109    
 1976-71-55      2414.0000000        2443.1013184       -29.101318359    
 1976-71-365     2424.0000000        2443.6579590       -19.657958984    
 1970-42-356     2502.0000000        2481.9980469        20.001953125    
 1970-48-336     2495.0000000        2485.9509277        9.0490722656    
 1970-56-19      2505.0000000        2479.5698242        25.430175781    
 2051-43-1       2503.0000000        2523.1918945       -20.191894531    
 2051-65-356     2450.0000000        2501.1516113       -51.151611328    
 2051-71-54      2447.0000000        2498.6071777       -51.607177734    
 2051-71-365     2451.0000000        2497.6391602       -46.639160156    
 1973-11-214     2529.0000000        2534.8254395       -5.8254394531    
 1969-11-190     2517.0000000        2535.4472656       -18.447265625    
 1946-66-5       2443.0000000        2512.9748535       -69.974853516    
 1946-71-22      2447.0000000        2515.1684570       -68.168457031    
 1946-71-365     2456.0000000        2515.3969727       -59.396972656    
 1967-27-87      2542.0000000        2557.7783203       -15.778320312    
 1967-42-356     2502.0000000        2525.6464844       -23.646484375    
 1967-48-350     2494.0000000        2524.4980469       -30.498046875    
 1967-55-347     2495.0000000        2530.4833984       -35.483398438    
 1967-66-5       2444.0000000        2509.1406250       -65.140625000    
 1967-71-22      2446.0000000        2512.5573730       -66.557373047    
 1967-71-365     2454.0000000        2512.7788086       -58.778808594    
 1939-42-356     2504.0000000        2472.8566895        31.143310547    
 1939-48-350     2495.0000000        2488.7646484        6.2353515625    
 1939-55-347     2497.0000000        2489.5915527        7.4084472656    
 1939-60-356     2480.0000000        2500.0583496       -20.058349609    
 1939-71-22      2448.0000000        2511.8720703       -63.872070312    
 1939-71-365     2457.0000000        2512.0585938       -55.058593750    
 1975-16-361     2581.0000000        2575.3723145        5.6276855469    
 1975-27-12      2580.0000000        2580.1791992      -0.17919921875    
 1945-56-25      2584.0000000        2570.5312500        13.468750000    
 1945-61-54      2569.0000000        2560.1064453        8.8935546875    
 1945-66-27      2577.0000000        2545.9770508        31.022949219    
 1945-71-41      2576.0000000        2546.1584473        29.841552734    
 1711-42-352     1846.0000000        1862.7553711       -16.755371094    
 1711-48-350     1844.0000000        1867.5349121       -23.534912109    
 1711-55-354     1846.0000000        1871.3199463       -25.319946289    
 1711-61-21      1848.0000000        1872.0511475       -24.051147461    
 1711-66-39      1836.0000000        1850.7392578       -14.739257812    
 1711-71-7       1842.0000000        1866.8223877       -24.822387695    
 1711-71-365     1843.0000000        1873.8587646       -30.858764648    
 1555-27-24      1867.0000000        1895.4822998       -28.482299805    
 1555-31-348     1851.0000000        1877.5590820       -26.559082031    
 1555-37-341     1811.0000000        1865.0311279       -54.031127930    
 1555-48-348     1846.0000000        1873.9394531       -27.939453125    
 1555-56-27      1843.0000000        1876.9403076       -33.940307617    
 1555-60-319     1847.0000000        1877.1787109       -30.178710938    
 1555-65-301     1827.0000000        1855.5007324       -28.500732422    
 1555-71-11      1841.0000000        1874.4211426       -33.421142578    
 1555-71-365     1845.0000000        1880.9346924       -35.934692383    
 1428-11-1       1997.0000000        2011.8382568       -14.838256836    
 1428-17-11      1983.0000000        2004.2225342       -21.222534180    
 1428-22-12      1969.0000000        1985.4503174       -16.450317383    
 1428-32-85      1946.0000000        1946.8804932      -0.88049316406    
 1383-1-106      2023.0000000        2027.9340820       -4.9340820312    
 1383-7-337      2024.0000000        2023.0236816       0.97631835938    
 1383-12-361     2025.0000000        2024.7187500       0.28125000000    
 1819-38-13      1884.0000000        1878.7177734        5.2822265625    
 1819-42-352     1885.0000000        1881.2653809        3.7346191406    
 1819-55-354     1873.0000000        1884.8798828       -11.879882812    
 1820-71-12      1977.0000000        1964.9942627        12.005737305    
 1820-71-365     1948.0000000        1961.3204346       -13.320434570    
 1748-17-6       1946.0000000        1958.7712402       -12.771240234    
 1748-21-335     1923.0000000        1931.7751465       -8.7751464844    
 1748-48-348     1881.0000000        1888.7778320       -7.7778320312    
 1748-60-305     1887.0000000        1895.5140381       -8.5140380859    
 1748-66-1       1901.0000000        1884.4252930        16.574707031    
 1748-71-8       1952.0000000        1938.8015137        13.198486328    
 1748-71-365     1953.0000000        1944.1325684        8.8674316406    
 1903-71-365     1926.0000000        1934.8104248       -8.8104248047    
 1862-71-365     1905.0000000        1917.1091309       -12.109130859    
 1861-65-364     1916.0000000        1922.8226318       -6.8226318359    
 1861-71-365     1952.0000000        1951.2650146       0.73498535156    
 1833-71-365     1934.0000000        1908.9951172        25.004882812    
 1770-71-365     1954.0000000        1921.6091309        32.390869141    
 1758-71-365     1924.0000000        1907.1514893        16.848510742    
 1709-22-38      1907.0000000        1921.8714600       -14.871459961    
 1709-42-352     1881.0000000        1882.8294678       -1.8294677734    
 1709-55-354     1871.0000000        1886.1389160       -15.138916016    
 1709-65-344     1908.0000000        1865.7968750        42.203125000    
 1709-71-365     1954.0000000        1919.8448486        34.155151367    
 1700-71-365     1954.0000000        1922.5803223        31.419677734    
 1828-71-365     1954.0000000        1923.5026855        30.497314453    
 1698-71-365     1984.0000000        1944.3469238        39.653076172    
 1883-65-336     1858.0000000        1837.4393311        20.560668945    
 1883-71-365     1882.0000000        1882.3739014      -0.37390136719    
 1838-71-365     1856.0000000        1875.4913330       -19.491333008    
 1805-71-365     1842.0000000        1864.9333496       -22.933349609    
 1702-16-354     1930.0000000        1941.3707275       -11.370727539    
 1702-42-352     1867.0000000        1874.3087158       -7.3087158203    
 1702-48-349     1865.0000000        1877.6082764       -12.608276367    
 1702-55-354     1861.0000000        1879.5140381       -18.514038086    
 1702-61-31      1873.0000000        1882.2325439       -9.2325439453    
 1702-65-344     1835.0000000        1847.7191162       -12.719116211    
 1702-71-365     1869.0000000        1878.3664551       -9.3664550781    
 1704-71-365     1865.0000000        1886.6878662       -21.687866211    
 1829-71-365     1888.0000000        1888.7155762      -0.71557617188    
 1710-17-6       1935.0000000        1943.5009766       -8.5009765625    
 1710-42-352     1874.0000000        1876.6376953       -2.6376953125    
 1710-48-349     1871.0000000        1879.7279053       -8.7279052734    
 1710-55-354     1867.0000000        1881.5035400       -14.503540039    
 1710-61-31      1882.0000000        1886.3023682       -4.3023681641    
 1710-65-344     1849.0000000        1849.5068359      -0.50683593750    
 1710-71-365     1891.0000000        1896.9254150       -5.9254150391    
 1703-71-365     1899.0000000        1884.4750977        14.524902344    
 1663-12-305     1964.0000000        1974.4499512       -10.449951172    
 1663-42-352     1877.0000000        1880.6877441       -3.6877441406    
 1663-48-349     1873.0000000        1883.3284912       -10.328491211    
 1663-55-354     1869.0000000        1884.6853027       -15.685302734    
 1663-61-31      1880.0000000        1888.6539307       -8.6539306641    
 1663-65-338     1844.0000000        1854.2373047       -10.237304688    
 1663-71-365     1891.0000000        1900.2056885       -9.2056884766    
 1667-71-365     1888.0000000        1898.0632324       -10.063232422    
 1686-71-365     1980.0000000        1942.1148682        37.885131836    
 1653-71-365     2007.0000000        1966.7174072        40.282592773    
 1634-71-365     1985.0000000        1942.8183594        42.181640625    
 1637-71-365     1997.0000000        1954.8360596        42.163940430    
 1635-71-365     1936.0000000        1926.0758057        9.9241943359    
 1584-17-6       1957.0000000        1970.8278809       -13.827880859    
 1584-22-38      1934.0000000        1945.4157715       -11.415771484    
 1584-27-27      1919.0000000        1923.3771973       -4.3771972656    
 1584-32-85      1896.0000000        1907.9274902       -11.927490234    
 1584-37-34      1893.0000000        1898.3359375       -5.3359375000    
 1584-42-352     1904.0000000        1901.8737793        2.1262207031    
 1584-48-348     1898.0000000        1902.4383545       -4.4383544922    
 1584-55-354     1891.0000000        1901.8933105       -10.893310547    
 1584-60-323     1899.0000000        1904.4337158       -5.4337158203    
 1584-65-344     1892.0000000        1883.5190430        8.4809570312    
 1584-71-365     1958.0000000        1936.8656006        21.134399414    
 1585-71-365     1953.0000000        1939.2427979        13.757202148    
 1592-71-365     1979.0000000        1971.9388428        7.0611572266    
 1591-71-365     1992.0000000        1979.0058594        12.994140625    
 1590-71-365     1994.0000000        1958.1771240        35.822875977    
 1650-71-365     1967.0000000        1974.3145752       -7.3145751953    
 1684-48-275     1902.0000000        1912.8994141       -10.899414062    
 1684-66-20      1899.0000000        1896.1624756        2.8375244141    
 1685-48-275     1902.0000000        1912.8994141       -10.899414062    
 1685-66-20      1896.0000000        1896.1624756      -0.16247558594    
 1496-21-355     1982.0000000        2006.5339355       -24.533935547    
 1496-27-27      1971.0000000        1986.0548096       -15.054809570    
 1496-32-85      1959.0000000        1970.5977783       -11.597778320    
 1496-36-91      1953.0000000        1965.2133789       -12.213378906    
 1496-56-19      1930.0000000        1946.4310303       -16.431030273    
 1491-56-19      1932.0000000        1946.6171875       -14.617187500    
 1501-16-309     2004.0000000        2040.5689697       -36.568969727    
 1497-48-300     1940.0000000        1949.2003174       -9.2003173828    
 1497-55-318     1931.0000000        1942.2349854       -11.234985352    
 1497-60-313     1916.0000000        1930.4958496       -14.495849609    
 1497-65-364     1898.0000000        1917.9250488       -19.925048828    
 1497-71-350     1941.0000000        1943.6556396       -2.6556396484    
 1498-48-300     1941.0000000        1949.2165527       -8.2165527344    
 1498-55-318     1930.0000000        1942.2890625       -12.289062500    
 1498-60-313     1917.0000000        1930.7081299       -13.708129883    
 1498-65-364     1898.0000000        1918.0787354       -20.078735352    
 1498-71-350     1942.0000000        1942.3395996      -0.33959960938    
 1442-36-1       1957.0000000        1949.6038818        7.3961181641    
 1442-42-349     1941.0000000        1942.0615234       -1.0615234375    
 1442-48-349     1933.0000000        1938.1549072       -5.1549072266    
 1442-55-353     1923.0000000        1932.0129395       -9.0129394531    
 1442-61-21      1907.0000000        1917.5583496       -10.558349609    
 1473-10-213     2021.0000000        2046.0324707       -25.032470703    
 1407-22-38      1991.0000000        1991.2437744      -0.24377441406    
 1407-42-349     1957.0000000        1964.6330566       -7.6330566406    
 1407-48-349     1949.0000000        1957.2791748       -8.2791748047    
 1407-55-353     1937.0000000        1947.8333740       -10.833374023    
 1407-61-21      1916.0000000        1923.7910156       -7.7910156250    
 1407-66-34      1900.0000000        1915.1278076       -15.127807617    
 1407-71-365     1990.0000000        1956.9937744        33.006225586    
 1412-71-365     1993.0000000        1955.1511230        37.848876953    
 1393-38-335     1974.0000000        1967.6929932        6.3070068359    
 1393-42-349     1957.0000000        1957.8568115      -0.85681152344    
 1393-48-349     1950.0000000        1953.4735107       -3.4735107422    
 1393-55-353     1938.0000000        1943.3372803       -5.3372802734    
 1393-71-365     2034.0000000        1980.7309570        53.269042969    
 1376-36-78      1988.0000000        1977.6564941        10.343505859    
 1376-48-349     1957.0000000        1962.9624023       -5.9624023438    
 1376-61-21      1921.0000000        1926.4157715       -5.4157714844    
 1376-66-34      1905.0000000        1918.5739746       -13.573974609    
 1376-71-56      1990.0000000        1958.7557373        31.244262695    
 1376-71-365     2019.0000000        1978.9274902        40.072509766    
 1361-71-362     1995.0000000        1968.0855713        26.914428711    
 1362-71-362     1995.0000000        1968.0855713        26.914428711    
 1421-71-362     2025.0000000        2039.6253662       -14.625366211    
 1403-66-34      1900.0000000        1913.6262207       -13.626220703    
 1403-71-56      1997.0000000        1957.0242920        39.975708008    
 1403-71-365     2031.0000000        1978.2038574        52.796142578    
 1388-71-362     2044.0000000        2028.5192871        15.480712891    
 1364-17-12      2001.0000000        2026.3203125       -25.320312500    
 1364-38-335     1980.0000000        1978.7720947        1.2279052734    
 1364-42-349     1961.0000000        1966.6531982       -5.6531982422    
 1364-55-353     1942.0000000        1951.3825684       -9.3825683594    
 1364-66-34      1904.0000000        1916.3120117       -12.312011719    
 1364-71-365     2054.0000000        2054.4143066      -0.41430664062    
 1365-17-12      2006.0000000        2027.1645508       -21.164550781    
 1365-22-6       1999.0000000        2002.5841064       -3.5841064453    
 1365-27-27      1992.0000000        1985.7728271        6.2271728516    
 1365-32-85      1986.0000000        1975.8028564        10.197143555    
 1365-37-17      1983.0000000        1972.8903809        10.109619141    
 1365-42-349     1965.0000000        1966.2352295       -1.2352294922    
 1365-48-349     1959.0000000        1962.4830322       -3.4830322266    
 1365-55-353     1948.0000000        1953.1441650       -5.1441650391    
 1365-60-364     1925.0000000        1933.9910889       -8.9910888672    
 1365-66-1       1907.0000000        1921.6718750       -14.671875000    
 1365-71-365     2045.0000000        2006.0668945        38.933105469    
 1335-71-362     2054.0000000        2062.6730957       -8.6730957031    
 1313-36-114     1987.0000000        1984.8577881        2.1422119141    
 1313-42-349     1974.0000000        1981.0842285       -7.0842285156    
 1313-48-349     1966.0000000        1976.2065430       -10.206542969    
 1313-55-353     1953.0000000        1964.6127930       -11.612792969    
 1313-61-21      1922.0000000        1939.0510254       -17.051025391    
 1313-66-13      1906.0000000        1929.5627441       -23.562744141    
 1266-17-12      2022.0000000        2046.7509766       -24.750976562    
 1266-38-335     2003.0000000        1999.8829346        3.1170654297    
 1266-42-349     1987.0000000        1991.8236084       -4.8236083984    
 1266-48-349     1980.0000000        1986.5885010       -6.5885009766    
 1266-56-3       1967.0000000        1974.4250488       -7.4250488281    
 1266-61-21      1938.0000000        1951.5666504       -13.566650391    
 1266-66-12      1922.0000000        1940.2559814       -18.255981445    
 1266-71-56      2000.0000000        1988.1842041        11.815795898    
 1266-71-365     2050.0000000        2027.3039551        22.696044922    
 1258-71-362     2050.0000000        2013.9531250        36.046875000    
 1265-17-12      2015.0000000        2045.7414551       -30.741455078    
 1265-38-335     2003.0000000        2000.7299805        2.2700195312    
 1265-42-349     1982.0000000        1991.5980225       -9.5980224609    
 1265-48-349     1975.0000000        1986.3785400       -11.378540039    
 1265-55-353     1961.0000000        1972.8441162       -11.844116211    
 1265-66-34      1917.0000000        1937.0509033       -20.050903320    
 1265-71-56      1998.0000000        1986.0421143        11.957885742    
 1265-71-365     2040.0000000        2012.3703613        27.629638672    
 1336-17-12      2021.0000000        2041.3176270       -20.317626953    
 1336-38-335     1988.0000000        1986.3498535        1.6501464844    
 1336-42-349     1974.0000000        1974.6987305      -0.69873046875    
 1336-48-349     1965.0000000        1970.9903564       -5.9903564453    
 1336-55-353     1959.0000000        1959.1219482      -0.12194824219    
 1336-71-40      1955.0000000        1949.2502441        5.7497558594    
 1336-71-365     1999.0000000        1970.1448975        28.855102539    
 1337-42-349     1965.0000000        1973.3217773       -8.3217773438    
 1337-55-353     1947.0000000        1954.8919678       -7.8919677734    
 1337-66-27      1901.0000000        1918.1022949       -17.102294922    
 1337-71-365     2033.0000000        2029.4218750        3.5781250000    
 1340-36-38      1989.0000000        1980.2783203        8.7216796875    
 1340-42-349     1969.0000000        1973.9016113       -4.9016113281    
 1340-48-349     1961.0000000        1968.7480469       -7.7480468750    
 1340-55-353     1948.0000000        1956.6419678       -8.6419677734    
 1340-66-10      1902.0000000        1922.4777832       -20.477783203    
 1340-71-56      2011.0000000        1970.7867432        40.213256836    
 1340-71-365     2033.0000000        1996.8778076        36.122192383    
 1264-38-335     2000.0000000        2001.2482910       -1.2482910156    
 1264-42-349     1981.0000000        1991.6480713       -10.648071289    
 1264-71-70      1982.0000000        1973.0480957        8.9519042969    
 1264-71-365     2018.0000000        1996.8709717        21.129028320    
 1257-66-33      1916.0000000        1939.0363770       -23.036376953    
 1257-71-56      1959.0000000        1964.6243896       -5.6243896484    
 1257-71-365     1994.0000000        1983.0454102        10.954589844    
 1371-56-31      1966.0000000        1979.7930908       -13.793090820    
 1371-66-56      1937.0000000        1953.0743408       -16.074340820    
 1371-71-50      1934.0000000        1953.1251221       -19.125122070    
 1371-71-365     1940.0000000        1956.8695068       -16.869506836    
 1370-34-198     2015.0000000        2010.4610596        4.5389404297    
 1370-56-31      1974.0000000        1982.0711670       -8.0711669922    
 1370-66-56      1951.0000000        1955.7698975       -4.7698974609    
 1370-71-50      1943.0000000        1953.5500488       -10.550048828    
 1370-71-365     1945.0000000        1956.2250977       -11.225097656    
 1849-12-32      2295.0000000        2304.0898438       -9.0898437500    
 1849-17-34      2282.0000000        2294.8774414       -12.877441406    
 1849-22-1       2276.0000000        2281.9753418       -5.9753417969    
 1847-48-362     2218.0000000        2221.9619141       -3.9619140625    
 1847-56-34      2197.0000000        2204.8898926       -7.8898925781    
 1847-61-3       2185.0000000        2190.7182617       -5.7182617188    
 1847-66-1       2178.0000000        2179.6191406       -1.6191406250    
 1847-71-56      2177.0000000        2180.0878906       -3.0878906250    
 1847-71-365     2179.0000000        2180.8835449       -1.8835449219    
 1742-1-365      2295.0000000        2302.9550781       -7.9550781250    
 1741-1-365      2294.0000000        2304.2028809       -10.202880859    
 1766-1-365      2333.0000000        2306.0966797        26.903320312    
 1848-56-34      2194.0000000        2207.1728516       -13.172851562    
 1848-65-336     2176.0000000        2175.9270020       7.29980468750E-02
 1848-71-365     2172.0000000        2171.5891113       0.41088867188    
 1901-2-36       2292.0000000        2281.6140137        10.385986328    
 1912-1-365      2284.0000000        2278.2939453        5.7060546875    
 1929-1-365      2283.0000000        2277.3269043        5.6730957031    
 1902-1-365      2282.0000000        2279.2402344        2.7597656250    
 1872-71-68      2168.0000000        2163.3540039        4.6459960938    
 1872-71-365     2169.0000000        2163.2561035        5.7438964844    
 1871-56-34      2185.0000000        2199.8728027       -14.872802734    
 1832-17-37      2250.0000000        2266.5456543       -16.545654297    
 1832-22-1       2238.0000000        2256.1691895       -18.169189453    
 1832-32-49      2224.0000000        2239.4528809       -15.452880859    
 1832-42-362     2198.0000000        2217.7612305       -19.761230469    
 1832-48-362     2207.0000000        2215.2255859       -8.2255859375    
 1832-56-34      2189.0000000        2202.2988281       -13.298828125    
 1832-61-3       2179.0000000        2185.8051758       -6.8051757812    
 1832-71-21      2168.0000000        2165.6787109        2.3212890625    
 1832-71-365     2168.0000000        2165.1823730        2.8176269531    
 1767-27-40      2263.0000000        2254.6701660        8.3298339844    
 1767-42-363     2207.0000000        2224.7868652       -17.786865234    
 1767-56-34      2199.0000000        2211.4724121       -12.472412109    
 1818-65-336     2171.0000000        2174.9448242       -3.9448242188    
 1804-71-76      2169.0000000        2169.8225098      -0.82250976562    
 1804-71-365     2168.0000000        2169.8005371       -1.8005371094    
 1793-42-362     2203.0000000        2221.9145508       -18.914550781    
 1793-48-334     2211.0000000        2221.9541016       -10.954101562    
 1793-56-34      2196.0000000        2209.3928223       -13.392822266    
 1793-65-336     2179.0000000        2178.1240234       0.87597656250    
 1793-71-21      2174.0000000        2172.2980957        1.7019042969    
 1793-71-365     2173.0000000        2172.1049805       0.89501953125    
 1891-1-365      2278.0000000        2276.6711426        1.3288574219    
 1891-11-38      2260.0000000        2266.7233887       -6.7233886719    
 1891-17-37      2237.0000000        2255.1762695       -18.176269531    
 1690-32-32      2242.0000000        2260.7841797       -18.784179688    
 1690-34-32      2237.0000000        2254.4907227       -17.490722656    
 1690-42-362     2216.0000000        2237.2353516       -21.235351562    
 1690-48-362     2222.0000000        2235.1833496       -13.183349609    
 1690-56-34      2207.0000000        2222.9899902       -15.989990234    
 1690-61-3       2187.0000000        2205.4243164       -18.424316406    
 1690-71-21      2185.0000000        2184.7102051       0.28979492188    
 1690-71-365     2186.0000000        2185.6376953       0.36230468750    
 1697-56-34      2201.0000000        2218.9777832       -17.977783203    
 1697-65-336     2184.0000000        2186.7419434       -2.7419433594    
 1697-71-21      2181.0000000        2180.8508301       0.14916992188    
 1697-71-365     2181.0000000        2181.1230469      -0.12304687500    
 1638-22-30      2262.0000000        2287.2880859       -25.288085938    
 1638-27-48      2252.0000000        2276.0664062       -24.066406250    
 1638-32-49      2248.0000000        2269.9143066       -21.914306641    
 1638-37-49      2231.0000000        2253.3798828       -22.379882812    
 1638-42-363     2220.0000000        2246.4375000       -26.437500000    
 1642-1-365      2316.0000000        2321.2893066       -5.2893066406    
 1642-8-48       2310.0000000        2318.2558594       -8.2558593750    
 1626-1-365      2317.0000000        2328.6120605       -11.612060547    
 1625-26-349     2281.0000000        2286.2028809       -5.2028808594    
 1625-32-49      2274.0000000        2279.5573730       -5.5573730469    
 1625-42-362     2244.0000000        2252.5632324       -8.5632324219    
 1625-48-362     2241.0000000        2246.7199707       -5.7199707031    
 1625-56-34      2226.0000000        2230.4934082       -4.4934082031    
 1625-61-3       2218.0000000        2213.6770020        4.3229980469    
 1508-12-54      2335.0000000        2329.8781738        5.1218261719    
 1508-17-33      2334.0000000        2326.2143555        7.7856445312    
 1508-22-26      2330.0000000        2312.7526855        17.247314453    
 1508-27-15      2332.0000000        2302.1159668        29.884033203    
 1508-32-49      2321.0000000        2296.9260254        24.073974609    
 1508-43-5       2280.0000000        2271.7807617        8.2192382812    
 1508-48-364     2290.0000000        2272.7810059        17.218994141    
 1508-56-34      2275.0000000        2257.4621582        17.537841797    
 1508-61-3       2245.0000000        2233.2353516        11.764648438    
 1508-71-49      2245.0000000        2210.4799805        34.520019531    
 1508-71-365     2249.0000000        2210.3955078        38.604492188    
 1479-43-5       2283.0000000        2284.4655762       -1.4655761719    
 1479-48-364     2295.0000000        2290.1340332        4.8659667969    
 1479-56-34      2280.0000000        2274.0114746        5.9885253906    
 1479-60-363     2247.0000000        2244.1860352        2.8139648438    
 1479-71-70      2249.0000000        2220.3461914        28.653808594    
 1479-71-365     2251.0000000        2220.1293945        30.870605469    
 1462-42-364     2289.0000000        2289.3818359      -0.38183593750    
 1462-48-334     2293.0000000        2296.8737793       -3.8737792969    
 1462-56-16      2279.0000000        2280.1708984       -1.1708984375    
 1468-1-365      2357.0000000        2354.2890625        2.7109375000    
 1471-11-278     2346.0000000        2343.9748535        2.0251464844    
 1471-17-33      2344.0000000        2343.1154785       0.88452148438    
 1471-22-26      2339.0000000        2326.4077148        12.592285156    
 1471-26-349     2333.0000000        2317.0329590        15.967041016    
 1471-43-5       2284.0000000        2285.6435547       -1.6435546875    
 1471-48-364     2296.0000000        2292.1210938        3.8789062500    
 1471-65-336     2241.0000000        2230.9121094        10.087890625    
 1471-71-70      2248.0000000        2222.7355957        25.264404297    
 1471-71-365     2250.0000000        2222.7736816        27.226318359    
 1461-12-54      2348.0000000        2348.7399902      -0.73999023438    
 1461-17-44      2340.0000000        2344.1533203       -4.1533203125    
 1461-22-30      2330.0000000        2331.8845215       -1.8845214844    
 1461-27-59      2319.0000000        2318.7768555       0.22314453125    
 1461-42-363     2295.0000000        2288.5766602        6.4233398438    
 1461-48-336     2311.0000000        2288.2006836        22.799316406    
 1461-56-34      2299.0000000        2270.6992188        28.300781250    
 1461-60-363     2271.0000000        2247.4121094        23.587890625    
 1461-66-59      2274.0000000        2231.3798828        42.620117188    
 1461-71-70      2283.0000000        2225.3701172        57.629882812    
 1461-71-365     2287.0000000        2224.8652344        62.134765625    
 1387-42-362     2292.0000000        2308.0705566       -16.070556641    
 1387-49-2       2310.0000000        2317.2099609       -7.2099609375    
 1387-56-33      2280.0000000        2297.0122070       -17.012207031    
 1387-60-363     2244.0000000        2259.9667969       -15.966796875    
 1387-66-59      2240.0000000        2240.8061523      -0.80615234375    
 1387-71-70      2252.0000000        2233.5078125        18.492187500    
 1387-71-365     2256.0000000        2232.7346191        23.265380859    
 1391-17-41      2368.0000000        2362.2761230        5.7238769531    
 1391-22-31      2358.0000000        2350.3710938        7.6289062500    
 1391-42-362     2310.0000000        2306.0158691        3.9841308594    
 1391-48-338     2314.0000000        2311.0537109        2.9462890625    
 1391-56-16      2281.0000000        2292.7126465       -11.712646484    
 1391-61-59      2260.0000000        2261.6669922       -1.6669921875    
 1391-66-27      2277.0000000        2244.8510742        32.148925781    
 1391-71-56      2263.0000000        2237.4606934        25.539306641    
 1386-17-41      2369.0000000        2362.6137695        6.3862304688    
 1386-22-31      2358.0000000        2350.6887207        7.3112792969    
 1386-42-362     2292.0000000        2306.3332520       -14.333251953    
 1386-48-337     2298.0000000        2311.6520996       -13.652099609    
 1386-56-16      2296.0000000        2293.2114258        2.7885742188    
 1398-48-335     2302.0000000        2312.1154785       -10.115478516    
 1401-2-1        2373.0000000        2369.5939941        3.4060058594    
 1401-12-53      2358.0000000        2358.0810547      -8.10546875000E-02
 1401-17-60      2362.0000000        2362.2805176      -0.28051757812    
 1401-22-26      2353.0000000        2344.6374512        8.3625488281    
 1427-17-39      2358.0000000        2359.1459961       -1.1459960938    
 1427-22-31      2350.0000000        2341.0356445        8.9643554688    
 1427-42-362     2293.0000000        2301.4353027       -8.4353027344    
 1427-48-364     2305.0000000        2311.4958496       -6.4958496094    
 1427-56-33      2285.0000000        2292.8955078       -7.8955078125    
 1378-42-364     2285.0000000        2311.9780273       -26.978027344    
 1400-1-32       2376.0000000        2369.9301758        6.0698242188    
 1400-12-53      2361.0000000        2358.4362793        2.5637207031    
 1400-17-60      2364.0000000        2362.5532227        1.4467773438    
 1400-22-26      2355.0000000        2344.9265137        10.073486328    
 1400-27-48      2349.0000000        2338.3916016        10.608398438    
 1400-36-3       2310.0000000        2310.7478027      -0.74780273438    
 1400-43-5       2292.0000000        2304.5068359       -12.506835938    
 1400-48-364     2307.0000000        2316.0097656       -9.0097656250    
 1400-56-33      2284.0000000        2296.3012695       -12.301269531    
 1400-60-363     2248.0000000        2258.8193359       -10.819335938    
 1400-71-365     2259.0000000        2232.2221680        26.777832031    
 1405-7-308      2360.0000000        2365.0556641       -5.0556640625    
 1405-10-34      2359.0000000        2360.7915039       -1.7915039062    
 1405-43-5       2287.0000000        2305.7124023       -18.712402344    
 1405-48-364     2301.0000000        2316.9648438       -15.964843750    
 1405-56-33      2278.0000000        2297.0998535       -19.099853516    
 1405-66-13      2235.0000000        2240.5761719       -5.5761718750    
 1405-71-365     2252.0000000        2233.3669434        18.633056641    
 1349-17-41      2357.0000000        2379.4001465       -22.400146484    
 1349-22-30      2345.0000000        2359.6110840       -14.611083984    
 1329-1-274      2381.0000000        2387.4545898       -6.4545898438    
 1329-17-41      2368.0000000        2382.8071289       -14.807128906    
 1329-22-31      2357.0000000        2363.0510254       -6.0510253906    
 1329-42-364     2285.0000000        2325.1899414       -40.189941406    
 1329-56-16      2275.0000000        2316.9182129       -41.918212891    
 1329-66-26      2245.0000000        2250.8852539       -5.8852539062    
 1282-1-277      2407.0000000        2391.6435547        15.356445312    
 1283-1-309      2387.0000000        2392.5107422       -5.5107421875    
 1283-6-340      2379.0000000        2389.4196777       -10.419677734    
 1283-11-350     2372.0000000        2381.1105957       -9.1105957031    
 1283-16-301     2369.0000000        2387.1076660       -18.107666016    
 1283-22-30      2361.0000000        2369.2587891       -8.2587890625    
 1283-27-10      2352.0000000        2363.4228516       -11.422851562    
 1283-35-345     2312.0000000        2332.2978516       -20.297851562    
 1274-6-288      2376.0000000        2388.9230957       -12.923095703    
 1274-12-54      2369.0000000        2381.2509766       -12.250976562    
 1274-17-41      2373.0000000        2386.8581543       -13.858154297    
 1274-22-30      2360.0000000        2369.0205078       -9.0205078125    
 1356-43-1       2285.0000000        2314.2138672       -29.213867188    
 1347-66-49      2241.0000000        2237.3044434        3.6955566406    
 1345-55-350     2281.0000000        2302.7255859       -21.725585938    
 1345-61-33      2244.0000000        2256.4377441       -12.437744141    
 1345-66-49      2241.0000000        2237.5324707        3.4675292969    
 1345-71-68      2252.0000000        2231.7526855        20.247314453    
 1345-71-365     2257.0000000        2231.5449219        25.455078125    
 1321-12-57      2369.0000000        2376.5864258       -7.5864257812    
 1321-17-41      2374.0000000        2378.6286621       -4.6286621094    
 1321-22-27      2361.0000000        2363.3754883       -2.3754882812    
 1321-27-51      2354.0000000        2355.7993164       -1.7993164062    
 1360-56-34      2271.0000000        2304.3923340       -33.392333984    
 1360-60-362     2240.0000000        2260.0065918       -20.006591797    
 1360-65-348     2229.0000000        2241.1525879       -12.152587891    
 1360-71-48      2243.0000000        2235.8342285        7.1657714844    
 1360-71-365     2248.0000000        2235.8352051        12.164794922    
 1328-1-277      2386.0000000        2386.6223145      -0.62231445312    
 1328-6-295      2377.0000000        2380.5856934       -3.5856933594    
 1306-11-41      2364.0000000        2378.2121582       -14.212158203    
 1306-17-41      2368.0000000        2380.7163086       -12.716308594    
 1306-22-27      2356.0000000        2363.3864746       -7.3864746094    
 1306-43-5       2286.0000000        2319.9045410       -33.904541016    
 1306-48-364     2304.0000000        2332.1918945       -28.191894531    
 1306-56-33      2272.0000000        2305.1867676       -33.186767578    
 1306-60-363     2238.0000000        2252.6584473       -14.658447266    
 1306-66-6       2234.0000000        2234.5505371      -0.55053710938    
 1306-71-60      2246.0000000        2229.1264648        16.873535156    
 1306-71-365     2252.0000000        2230.2255859        21.774414062    
 1307-1-274      2386.0000000        2387.5295410       -1.5295410156    
 1307-11-41      2369.0000000        2378.2141113       -9.2141113281    
 1307-17-41      2375.0000000        2381.1196289       -6.1196289062    
 1307-22-27      2362.0000000        2362.6333008      -0.63330078125    
 1307-26-349     2350.0000000        2358.4357910       -8.4357910156    
 1307-48-364     2309.0000000        2333.5502930       -24.550292969    
 1307-56-33      2279.0000000        2309.0571289       -30.057128906    
 1307-71-60      2253.0000000        2236.1428223        16.857177734    
 1307-71-365     2258.0000000        2236.8681641        21.131835938    
 1304-1-274      2381.0000000        2388.7985840       -7.7985839844    
 1304-11-41      2365.0000000        2379.6171875       -14.617187500    
 1304-17-32      2370.0000000        2382.6376953       -12.637695312    
 1304-22-27      2354.0000000        2364.3935547       -10.393554688    
 1304-26-302     2340.0000000        2359.7836914       -19.783691406    
 1304-48-364     2301.0000000        2335.5053711       -34.505371094    
 1304-56-33      2270.0000000        2310.6354980       -40.635498047    
 1304-60-356     2235.0000000        2260.7448730       -25.744873047    
 1304-71-60      2244.0000000        2237.0007324        6.9992675781    
 1281-12-54      2373.0000000        2379.8503418       -6.8503417969    
 1281-17-41      2377.0000000        2385.4978027       -8.4978027344    
 1281-22-30      2365.0000000        2367.6218262       -2.6218261719    
 1281-32-50      2343.0000000        2353.1743164       -10.174316406    
 1281-37-49      2314.0000000        2324.3662109       -10.366210938    
 1292-1-274      2389.0000000        2390.0346680       -1.0346679688    
 1292-17-46      2376.0000000        2383.6508789       -7.6508789062    
 1292-22-27      2363.0000000        2366.2363281       -3.2363281250    
 1292-26-349     2351.0000000        2361.8032227       -10.803222656    
 1292-43-5       2291.0000000        2322.6184082       -31.618408203    
 1292-48-364     2311.0000000        2337.6848145       -26.684814453    
 1272-1-60       2392.0000000        2393.0117188       -1.0117187500    
 1272-7-176      2374.0000000        2385.6210938       -11.621093750    
 1272-60-363     2245.0000000        2261.9960938       -16.996093750    
 1272-65-348     2241.0000000        2246.4321289       -5.4321289062    
 1272-71-365     2258.0000000        2239.4482422        18.551757812    
 1298-42-362     2292.0000000        2321.1169434       -29.116943359    
 1298-56-10      2279.0000000        2305.5690918       -26.569091797    
 1298-60-363     2244.0000000        2250.0910645       -6.0910644531    
 1298-66-13      2240.0000000        2233.5524902        6.4475097656    
 1298-71-365     2257.0000000        2225.7255859        31.274414062    
 1299-56-10      2280.0000000        2304.6682129       -24.668212891    
 1299-66-13      2240.0000000        2225.4128418        14.587158203    
 1299-71-365     2255.0000000        2220.2849121        34.715087891    
 1294-43-5       2283.0000000        2321.8039551       -38.803955078    
 1294-48-364     2302.0000000        2334.5666504       -32.566650391    
 1294-56-10      2272.0000000        2306.9301758       -34.930175781    
 1294-60-363     2237.0000000        2245.0561523       -8.0561523438    
 1294-66-13      2233.0000000        2228.8867188        4.1132812500    
 1294-71-365     2251.0000000        2223.1970215        27.802978516    
 1296-71-60      2249.0000000        2222.4709473        26.529052734    
 1288-56-10      2281.0000000        2306.9604492       -25.960449219    
 1288-66-13      2242.0000000        2227.6867676        14.313232422    
 1288-71-41      2251.0000000        2218.3730469        32.626953125    
 1288-71-365     2257.0000000        2221.8093262        35.190673828    
 1285-60-361     2244.0000000        2246.9892578       -2.9892578125    
 1285-71-365     2257.0000000        2222.8552246        34.144775391    
 1291-60-361     2243.0000000        2244.7497559       -1.7497558594    
 1291-71-365     2257.0000000        2220.9084473        36.091552734    
 1287-60-361     2245.0000000        2245.1804199      -0.18041992188    
 1287-71-365     2258.0000000        2221.2734375        36.726562500    
 1342-71-62      2342.0000000        2242.6613770        99.338623047    
 1342-71-365     2341.0000000        2241.6982422        99.301757812    
 1346-11-40      2376.0000000        2375.7626953       0.23730468750    
 1346-17-44      2376.0000000        2374.7221680        1.2778320312    
 1346-22-27      2364.0000000        2362.3291016        1.6708984375    
 1346-27-59      2357.0000000        2351.1760254        5.8239746094    
 1346-32-50      2357.0000000        2342.1640625        14.835937500    
 1346-42-362     2298.0000000        2317.3793945       -19.379394531    
 1346-48-357     2313.0000000        2326.3134766       -13.313476562    
 1346-56-32      2285.0000000        2303.5700684       -18.570068359    
 1346-60-363     2302.0000000        2264.4567871        37.543212891    
 1346-71-62      2262.0000000        2237.9165039        24.083496094    
 1346-71-365     2268.0000000        2237.1315918        30.868408203    
 1351-71-62      2310.0000000        2238.4431152        71.556884766    
 1351-71-365     2310.0000000        2237.6108398        72.389160156    
 1305-12-57      2382.0000000        2382.1599121      -0.15991210938    
 1305-17-46      2384.0000000        2381.6806641        2.3193359375    
 1305-22-27      2366.0000000        2369.4636230       -3.4636230469    
 1305-42-362     2294.0000000        2322.0205078       -28.020507812    
 1305-48-357     2312.0000000        2333.5322266       -21.532226562    
 1305-55-357     2285.0000000        2308.0065918       -23.006591797    
 1305-60-342     2251.0000000        2259.0039062       -8.0039062500    
 1305-66-59      2248.0000000        2242.8015137        5.1984863281    
 1305-71-20      2255.0000000        2232.4204102        22.579589844    
 1305-71-365     2261.0000000        2232.9575195        28.042480469    
 1286-1-91       2419.0000000        2395.3479004        23.652099609    
 1284-60-361     2246.0000000        2247.9460449       -1.9460449219    
 1284-65-356     2240.0000000        2233.0385742        6.9614257812    
 1284-71-365     2258.0000000        2223.9846191        34.015380859    
 1271-42-362     2294.0000000        2326.0983887       -32.098388672    
 1271-56-10      2284.0000000        2311.7036133       -27.703613281    
 1271-60-363     2250.0000000        2255.6982422       -5.6982421875    
 1271-66-13      2244.0000000        2241.1381836        2.8618164062    
 1271-71-62      2255.0000000        2228.9357910        26.064208984    
 1271-71-365     2259.0000000        2230.5981445        28.401855469    
 1293-56-10      2282.0000000        2305.3242188       -23.324218750    
 1293-66-13      2243.0000000        2233.2978516        9.7021484375    
 1293-71-47      2251.0000000        2221.9111328        29.088867188    
 1293-71-365     2257.0000000        2223.9985352        33.001464844    
 1898-10-252     2397.0000000        2413.3903809       -16.390380859    
 1873-10-252     2394.0000000        2409.0974121       -15.097412109    
 1763-10-252     2409.0000000        2415.6000977       -6.6000976562    
 1762-7-161      2417.0000000        2424.4511719       -7.4511718750    
 1762-22-60      2383.0000000        2391.8283691       -8.8283691406    
 1776-42-355     2284.0000000        2320.4458008       -36.445800781    
 1776-56-27      2238.0000000        2288.6130371       -50.613037109    
 1776-66-54      2214.0000000        2281.5659180       -67.565917969    
 1776-71-64      2224.0000000        2288.8422852       -64.842285156    
 1776-71-365     2228.0000000        2289.4377441       -61.437744141    
 1775-42-355     2284.0000000        2321.2272949       -37.227294922    
 1775-56-27      2239.0000000        2288.0075684       -49.007568359    
 1775-66-54      2213.0000000        2281.1059570       -68.105957031    
 1775-71-64      2224.0000000        2288.6992188       -64.699218750    
 1775-71-365     2228.0000000        2289.3105469       -61.310546875    
 1905-10-252     2395.0000000        2400.8076172       -5.8076171875    
 1875-10-252     2391.0000000        2395.4318848       -4.4318847656    
 1877-22-79      2360.0000000        2369.7468262       -9.7468261719    
 1877-42-356     2273.0000000        2297.8559570       -24.855957031    
 1877-48-355     2238.0000000        2264.8117676       -26.811767578    
 1877-66-59      2185.0000000        2252.6179199       -67.617919922    
 1877-71-64      2205.0000000        2262.9067383       -57.906738281    
 1877-71-365     2210.0000000        2264.1047363       -54.104736328    
 1878-42-356     2273.0000000        2298.5751953       -25.575195312    
 1878-48-356     2239.0000000        2261.8674316       -22.867431641    
 1878-56-10      2207.0000000        2252.2067871       -45.206787109    
 1878-61-26      2176.0000000        2236.5895996       -60.589599609    
 1878-66-59      2186.0000000        2253.1049805       -67.104980469    
 1878-71-64      2207.0000000        2263.6440430       -56.644042969    
 1878-71-365     2211.0000000        2264.8391113       -53.839111328    
 1926-42-363     2274.0000000        2288.7360840       -14.736083984    
 1886-22-79      2353.0000000        2361.8176270       -8.8176269531    
 1886-26-349     2341.0000000        2347.5056152       -6.5056152344    
 1886-42-362     2271.0000000        2290.8046875       -19.804687500    
 1886-48-357     2237.0000000        2258.4091797       -21.409179688    
 1886-56-24      2201.0000000        2247.0393066       -46.039306641    
 1886-66-1       2173.0000000        2241.3679199       -68.367919922    
 1886-71-62      2198.0000000        2253.3666992       -55.366699219    
 1886-71-365     2203.0000000        2255.0651855       -52.065185547    
 1852-10-255     2390.0000000        2393.5366211       -3.5366210938    
 1822-10-255     2384.0000000        2389.0490723       -5.0490722656    
 1786-66-19      2167.0000000        2238.2429199       -71.242919922    
 1786-71-33      2188.0000000        2251.9992676       -63.999267578    
 1786-71-365     2192.0000000        2253.4143066       -61.414306641    
 1851-10-252     2391.0000000        2401.9812012       -10.981201172    
 1791-12-116     2390.0000000        2396.8127441       -6.8127441406    
 1791-22-79      2356.0000000        2368.5646973       -12.564697266    
 1791-26-294     2344.0000000        2354.8930664       -10.893066406    
 1791-42-356     2270.0000000        2295.7189941       -25.718994141    
 1791-48-356     2235.0000000        2257.9064941       -22.906494141    
 1791-66-56      2187.0000000        2250.1347656       -63.134765625    
 1791-71-33      2203.0000000        2261.2724609       -58.272460938    
 1791-71-365     2208.0000000        2262.1118164       -54.111816406    
 1785-42-356     2271.0000000        2295.8745117       -24.874511719    
 1785-48-356     2235.0000000        2258.2438965       -23.243896484    
 1785-56-10      2212.0000000        2248.7565918       -36.756591797    
 1785-61-26      2173.0000000        2231.2106934       -58.210693359    
 1785-66-56      2186.0000000        2250.2773438       -64.277343750    
 1785-71-33      2203.0000000        2261.3796387       -58.379638672    
 1785-71-365     2208.0000000        2262.2612305       -54.261230469    
 1928-10-256     2381.0000000        2380.6494141       0.35058593750    
 1879-12-111     2376.0000000        2379.5300293       -3.5300292969    
 1879-22-79      2350.0000000        2353.2143555       -3.2143554688    
 1879-42-362     2268.0000000        2280.5886230       -12.588623047    
 1879-48-357     2235.0000000        2250.1101074       -15.110107422    
 1879-55-353     2199.0000000        2233.1374512       -34.137451172    
 1879-60-313     2201.0000000        2213.2802734       -12.280273438    
 1879-71-49      2192.0000000        2243.0166016       -51.016601562    
 1879-71-365     2198.0000000        2245.1289062       -47.128906250    
 1824-10-256     2376.0000000        2373.2514648        2.7485351562    
 1811-7-156      2379.0000000        2374.1330566        4.8669433594    
 1811-22-79      2341.0000000        2338.8295898        2.1704101562    
 1811-32-32      2314.0000000        2309.9802246        4.0197753906    
 1811-48-357     2232.0000000        2239.6000977       -7.6000976562    
 1811-55-354     2190.0000000        2216.5791016       -26.579101562    
 1811-60-349     2149.0000000        2194.1350098       -45.135009766    
 1811-65-355     2161.0000000        2210.1684570       -49.168457031    
 1811-71-68      2187.0000000        2225.9101562       -38.910156250    
 1811-71-365     2193.0000000        2228.2937012       -35.293701172    
 1777-10-256     2378.0000000        2373.3195801        4.6804199219    
 1823-42-362     2268.0000000        2276.0373535       -8.0373535156    
 1823-48-357     2235.0000000        2246.5283203       -11.528320312    
 1823-56-32      2194.0000000        2223.9157715       -29.915771484    
 1823-60-313     2165.0000000        2205.5192871       -40.519287109    
 1823-66-19      2171.0000000        2224.7219238       -53.721923828    
 1823-71-49      2194.0000000        2239.4328613       -45.432861328    
 1823-71-365     2200.0000000        2241.7844238       -41.784423828    
 1744-10-256     2381.0000000        2378.3569336        2.6430664062    
 1907-12-116     2361.0000000        2361.4226074      -0.42260742188    
 1907-22-79      2337.0000000        2337.7895508      -0.78955078125    
 1907-42-362     2259.0000000        2262.2868652       -3.2868652344    
 1907-48-357     2229.0000000        2238.4270020       -9.4270019531    
 1907-71-365     2189.0000000        2226.1589355       -37.158935547    
 1906-42-362     2259.0000000        2262.3964844       -3.3964843750    
 1906-48-357     2230.0000000        2238.7392578       -8.7392578125    
 1906-55-356     2188.0000000        2219.2907715       -31.290771484    
 1906-60-341     2164.0000000        2199.4614258       -35.461425781    
 1906-65-355     2153.0000000        2208.7446289       -55.744628906    
 1906-71-32      2182.0000000        2224.1621094       -42.162109375    
 1906-71-365     2189.0000000        2226.7519531       -37.751953125    
 1899-66-19      2159.0000000        2196.2529297       -37.252929688    
 1899-71-32      2181.0000000        2213.6843262       -32.684326172    
 1899-71-365     2188.0000000        2216.4426270       -28.442626953    
 1778-12-261     2348.0000000        2355.5722656       -7.5722656250    
 1764-10-257     2360.0000000        2358.1145020        1.8854980469    
 1765-42-362     2257.0000000        2255.0793457        1.9206542969    
 1765-48-357     2229.0000000        2231.3635254       -2.3635253906    
 1765-55-354     2179.0000000        2205.9389648       -26.938964844    
 1765-60-349     2153.0000000        2186.9104004       -33.910400391    
 1765-66-56      2160.0000000        2194.7072754       -34.707275391    
 1765-71-32      2181.0000000        2212.6936035       -31.693603516    
 1765-71-365     2188.0000000        2214.9716797       -26.971679688    
 1816-10-153     2360.0000000        2364.7878418       -4.7878417969    
 1825-42-335     2255.0000000        2261.9213867       -6.9213867188    
 1825-48-357     2225.0000000        2236.3818359       -11.381835938    
 1825-56-27      2180.0000000        2210.8195801       -30.819580078    
 1825-61-42      2142.0000000        2190.1679688       -48.167968750    
 1825-66-19      2156.0000000        2205.1728516       -49.172851562    
 1825-71-32      2178.0000000        2221.1413574       -43.141357422    
 1825-71-365     2185.0000000        2223.7792969       -38.779296875    
 1888-22-79      2317.0000000        2318.2255859       -1.2255859375    
 1888-32-32      2295.0000000        2288.9028320        6.0971679688    
 1888-42-362     2247.0000000        2241.6342773        5.3657226562    
 1888-48-357     2222.0000000        2221.9040527       9.59472656250E-02
 1888-65-355     2147.0000000        2183.4255371       -36.425537109    
 1888-71-32      2173.0000000        2202.4379883       -29.437988281    
 1888-71-365     2179.0000000        2204.5405273       -25.540527344    
 1890-42-362     2247.0000000        2240.8342285        6.1657714844    
 1890-48-357     2222.0000000        2221.5415039       0.45849609375    
 1890-55-350     2180.0000000        2197.4384766       -17.438476562    
 1890-61-42      2153.0000000        2180.4543457       -27.454345703    
 1890-66-19      2152.0000000        2183.5219727       -31.521972656    
 1890-71-32      2176.0000000        2202.2104492       -26.210449219    
 1890-71-365     2180.0000000        2204.3317871       -24.331787109    
 1812-12-91      2340.0000000        2343.2700195       -3.2700195312    
 1812-22-62      2314.0000000        2317.4738770       -3.4738769531    
 1812-32-60      2298.0000000        2290.4594727        7.5405273438    
 1827-42-362     2250.0000000        2246.4782715        3.5217285156    
 1827-48-357     2224.0000000        2224.8386230      -0.83862304688    
 1827-56-25      2183.0000000        2199.8825684       -16.882568359    
 1827-61-42      2153.0000000        2182.1464844       -29.146484375    
 1827-66-19      2155.0000000        2185.4460449       -30.446044922    
 1827-71-32      2178.0000000        2203.5981445       -25.598144531    
 1827-71-365     2184.0000000        2205.7863770       -21.786376953    
 1779-12-109     2333.0000000        2340.6096191       -7.6096191406    
 1779-17-80      2325.0000000        2331.2294922       -6.2294921875    
 1779-22-79      2314.0000000        2314.6740723      -0.67407226562    
 1779-42-362     2247.0000000        2244.1271973        2.8728027344    
 1870-42-364     2234.0000000        2236.4592285       -2.4592285156    
 1817-56-20      2185.0000000        2199.9580078       -14.958007812    
 1817-66-34      2159.0000000        2180.6135254       -21.613525391    
 1747-71-60      2179.0000000        2190.5705566       -11.570556641    
 1722-1-152      2342.0000000        2343.2387695       -1.2387695312    
 1722-22-80      2297.0000000        2306.2150879       -9.2150878906    
 1722-26-349     2292.0000000        2295.7155762       -3.7155761719    
 1722-32-32      2282.0000000        2283.7546387       -1.7546386719    
 1722-42-362     2237.0000000        2244.8999023       -7.8999023438    
 1722-48-357     2221.0000000        2228.4123535       -7.4123535156    
 1722-56-24      2192.0000000        2206.3642578       -14.364257812    
 1722-61-11      2180.0000000        2191.7524414       -11.752441406    
 1722-66-59      2175.0000000        2187.3427734       -12.342773438    
 1722-71-56      2178.0000000        2196.3652344       -18.365234375    
 1722-71-365     2182.0000000        2198.5095215       -16.509521484    
 1668-56-20      2191.0000000        2209.3967285       -18.396728516    
 1666-66-34      2190.0000000        2190.6108398      -0.61083984375    
 1718-56-20      2187.0000000        2207.5449219       -20.544921875    
 1718-61-59      2146.0000000        2194.1000977       -48.100097656    
 1718-66-34      2164.0000000        2186.7241211       -22.724121094    
 1662-56-20      2204.0000000        2213.1994629       -9.1994628906    
 1664-66-34      2183.0000000        2190.4677734       -7.4677734375    
 1664-71-60      2192.0000000        2192.8632812      -0.86328125000    
 1641-66-34      2201.0000000        2193.3405762        7.6594238281    
 1619-1-365      2394.0000000        2350.3581543        43.641845703    
 1619-8-57       2377.0000000        2342.6813965        34.318603516    
 1619-12-59      2359.0000000        2335.8779297        23.122070312    
 1619-17-87      2354.0000000        2325.7478027        28.252197266    
 1619-22-79      2342.0000000        2310.5864258        31.413574219    
 1619-42-335     2296.0000000        2253.3901367        42.609863281    
 1608-35-121     2274.0000000        2276.5803223       -2.5803222656    
 1608-42-362     2247.0000000        2254.9655762       -7.9655761719    
 1608-48-357     2236.0000000        2241.1333008       -5.1333007812    
 1608-55-340     2209.0000000        2218.9992676       -9.9992675781    
 1608-60-348     2202.0000000        2205.4069824       -3.4069824219    
 1608-66-5       2200.0000000        2198.5075684        1.4924316406    
 1608-71-1       2203.0000000        2203.2043457      -0.20434570312    
 1608-71-365     2204.0000000        2205.1701660       -1.1701660156    
 1714-56-33      2195.0000000        2204.6428223       -9.6428222656    
 1714-71-29      2178.0000000        2203.2050781       -25.205078125    
 1714-71-365     2182.0000000        2205.4904785       -23.490478516    
 1715-66-59      2166.0000000        2188.4611816       -22.461181641    
 1715-71-29      2178.0000000        2203.2050781       -25.205078125    
 1715-71-365     2183.0000000        2205.4904785       -22.490478516    
 1716-66-59      2166.0000000        2188.2446289       -22.244628906    
 1716-71-29      2177.0000000        2201.9670410       -24.967041016    
 1716-71-365     2181.0000000        2204.2778320       -23.277832031    
 1717-71-32      2177.0000000        2202.0678711       -25.067871094    
 1717-71-365     2181.0000000        2204.2927246       -23.292724609    
 1689-71-29      2180.0000000        2202.5520020       -22.552001953    
 1689-71-365     2183.0000000        2204.8823242       -21.882324219    
 1696-66-59      2170.0000000        2189.5183105       -19.518310547    
 1696-71-29      2180.0000000        2202.5520020       -22.552001953    
 1696-71-365     2183.0000000        2204.8823242       -21.882324219    
 1673-2-274      2365.0000000        2361.1875000        3.8125000000    
 1673-8-57       2356.0000000        2354.5683594        1.4316406250    
 1673-12-59      2341.0000000        2348.6262207       -7.6262207031    
 1673-17-87      2331.0000000        2338.5324707       -7.5324707031    
 1673-22-79      2324.0000000        2322.0527344        1.9472656250    
 1673-42-363     2258.0000000        2254.0822754        3.9177246094    
 1673-48-357     2234.0000000        2233.6999512       0.30004882812    
 1673-56-24      2195.0000000        2208.6430664       -13.643066406    
 1723-1-32       2370.0000000        2352.9460449        17.053955078    
 1723-12-59      2331.0000000        2340.3718262       -9.3718261719    
 1723-17-87      2319.0000000        2330.7006836       -11.700683594    
 1723-22-80      2306.0000000        2315.2048340       -9.2048339844    
 1723-42-363     2250.0000000        2248.6940918        1.3059082031    
 1723-48-357     2231.0000000        2228.1123047        2.8876953125    
 1723-56-24      2195.0000000        2204.5283203       -9.5283203125    
 1723-60-348     2174.0000000        2188.7153320       -14.715332031    
 1723-66-59      2169.0000000        2188.0771484       -19.077148438    
 1723-71-32      2180.0000000        2201.7226562       -21.722656250    
 1723-71-365     2185.0000000        2203.9548340       -18.954833984    
 1724-1-365      2346.0000000        2349.6870117       -3.6870117188    
 1724-12-59      2327.0000000        2337.0576172       -10.057617188    
 1724-17-82      2317.0000000        2327.4545898       -10.454589844    
 1724-22-80      2304.0000000        2312.3398438       -8.3398437500    
 1724-42-363     2247.0000000        2247.3525391      -0.35253906250    
 1724-48-357     2230.0000000        2228.4309082        1.5690917969    
 1724-56-20      2196.0000000        2205.4477539       -9.4477539062    
 1724-60-348     2180.0000000        2190.3261719       -10.326171875    
 1724-66-59      2175.0000000        2187.8686523       -12.868652344    
 1724-71-56      2182.0000000        2199.8203125       -17.820312500    
 1724-71-365     2186.0000000        2201.9155273       -15.915527344    
 1694-17-82      2345.0000000        2353.4521484       -8.4521484375    
 1694-22-80      2332.0000000        2333.6284180       -1.6284179688    
 1699-42-363     2258.0000000        2264.7065430       -6.7065429688    
 1699-48-357     2227.0000000        2238.2248535       -11.224853516    
 1699-55-356     2177.0000000        2211.9526367       -34.952636719    
 1699-60-349     2146.0000000        2189.5715332       -43.571533203    
 1699-66-56      2161.0000000        2206.9160156       -45.916015625    
 1699-71-32      2177.0000000        2221.8044434       -44.804443359    
 1699-71-365     2185.0000000        2224.3449707       -39.344970703    
 1695-7-158      2368.0000000        2367.7275391       0.27246093750    
 1695-42-363     2263.0000000        2261.9042969        1.0957031250    
 1695-48-357     2234.0000000        2236.5783691       -2.5783691406    
 1695-56-24      2185.0000000        2209.5146484       -24.514648438    
 1695-60-336     2192.0000000        2189.5107422        2.4892578125    
 1695-66-56      2168.0000000        2203.0190430       -35.019042969    
 1695-71-56      2184.0000000        2218.4526367       -34.452636719    
 1695-71-365     2190.0000000        2220.7453613       -30.745361328    
 1658-2-217      2372.0000000        2366.0651855        5.9348144531    
 1658-8-58       2367.0000000        2359.6848145        7.3151855469    
 1658-12-59      2352.0000000        2353.2497559       -1.2497558594    
 1658-17-87      2338.0000000        2342.1848145       -4.1848144531    
 1658-22-81      2328.0000000        2325.1618652        2.8381347656    
 1652-42-363     2266.0000000        2260.0268555        5.9731445312    
 1652-48-357     2241.0000000        2237.7556152        3.2443847656    
 1652-56-24      2202.0000000        2212.8266602       -10.826660156    
 1652-60-349     2177.0000000        2194.1557617       -17.155761719    
 1652-66-1       2177.0000000        2199.3254395       -22.325439453    
 1652-71-76      2192.0000000        2213.7663574       -21.766357422    
 1652-71-365     2196.0000000        2215.8422852       -19.842285156    
 1633-12-96      2371.0000000        2365.0629883        5.9370117188    
 1633-17-89      2356.0000000        2354.5317383        1.4682617188    
 1633-42-355     2266.0000000        2269.8994141       -3.8994140625    
 1713-61-54      2157.0000000        2201.0729980       -44.072998047    
 1713-66-56      2183.0000000        2226.0959473       -43.095947266    
 1713-71-64      2202.0000000        2241.4909668       -39.490966797    
 1713-71-365     2207.0000000        2243.2275391       -36.227539062    
 1670-42-357     2269.0000000        2275.9643555       -6.9643554688    
 1656-22-80      2344.0000000        2342.9956055        1.0043945312    
 1656-31-351     2319.0000000        2317.9665527        1.0334472656    
 1656-37-343     2281.0000000        2289.5942383       -8.5942382812    
 1656-55-360     2198.0000000        2224.2536621       -26.253662109    
 1656-61-42      2155.0000000        2195.3457031       -40.345703125    
 1656-66-56      2179.0000000        2221.3417969       -42.341796875    
 1656-71-33      2195.0000000        2236.0827637       -41.082763672    
 1656-71-365     2200.0000000        2238.2902832       -38.290283203    
 1655-17-89      2365.0000000        2369.5541992       -4.5541992188    
 1655-22-80      2348.0000000        2345.1811523        2.8188476562    
 1655-42-355     2271.0000000        2277.6174316       -6.6174316406    
 1655-48-364     2236.0000000        2244.2077637       -8.2077636719    
 1651-42-362     2268.0000000        2271.2619629       -3.2619628906    
 1651-48-355     2239.0000000        2243.0317383       -4.0317382812    
 1657-60-349     2162.0000000        2195.5969238       -33.596923828    
 1657-66-56      2177.0000000        2215.1010742       -38.101074219    
 1657-71-32      2193.0000000        2228.7255859       -35.725585938    
 1657-71-365     2198.0000000        2231.0039062       -33.003906250    
 1614-12-96      2380.0000000        2380.6381836      -0.63818359375    
 1614-17-89      2369.0000000        2368.3388672       0.66113281250    
 1614-22-80      2347.0000000        2345.0241699        1.9758300781    
 1615-17-89      2366.0000000        2368.0229492       -2.0229492188    
 1615-22-80      2347.0000000        2344.8164062        2.1835937500    
 1615-42-356     2273.0000000        2280.4069824       -7.4069824219    
 1615-48-355     2242.0000000        2249.3378906       -7.3378906250    
 1615-56-20      2207.0000000        2228.3203125       -21.320312500    
 1615-61-31      2163.0000000        2200.5893555       -37.589355469    
 1615-66-56      2186.0000000        2224.0231934       -38.023193359    
 1615-71-33      2200.0000000        2237.4621582       -37.462158203    
 1615-71-365     2204.0000000        2239.3803711       -35.380371094    
 1611-42-356     2272.0000000        2281.7224121       -9.7224121094    
 1611-48-355     2241.0000000        2250.4855957       -9.4855957031    
 1611-56-20      2207.0000000        2228.5068359       -21.506835938    
 1611-61-31      2163.0000000        2200.9545898       -37.954589844    
 1611-66-56      2185.0000000        2225.6330566       -40.633056641    
 1611-71-33      2199.0000000        2238.9492188       -39.949218750    
 1611-71-365     2204.0000000        2240.6875000       -36.687500000    
 1708-42-357     2272.0000000        2293.4809570       -21.480957031    
 1708-48-341     2223.0000000        2256.4528809       -33.452880859    
 1693-17-87      2379.0000000        2386.7695312       -7.7695312500    
 1693-22-79      2362.0000000        2367.8708496       -5.8708496094    
 1693-42-356     2271.0000000        2290.8007812       -19.800781250    
 1693-48-356     2236.0000000        2253.7629395       -17.762939453    
 1687-42-356     2273.0000000        2294.0229492       -21.022949219    
 1687-48-356     2238.0000000        2257.4277344       -19.427734375    
 1687-56-27      2207.0000000        2248.2380371       -41.238037109    
 1687-61-26      2181.0000000        2229.3552246       -48.355224609    
 1687-66-56      2192.0000000        2250.5197754       -58.519775391    
 1687-71-33      2207.0000000        2261.4597168       -54.459716797    
 1687-71-365     2212.0000000        2262.0598145       -50.059814453    
 1681-17-87      2373.0000000        2378.0375977       -5.0375976562    
 1681-22-79      2354.0000000        2358.0200195       -4.0200195312    
 1681-26-294     2343.0000000        2346.5656738       -3.5656738281    
 1681-48-356     2235.0000000        2246.6977539       -11.697753906    
 1681-66-56      2184.0000000        2236.2863770       -52.286376953    
 1681-71-33      2201.0000000        2250.0632324       -49.063232422    
 1681-71-365     2202.0000000        2251.1909180       -49.190917969    
 1688-42-356     2269.0000000        2284.9948730       -15.994873047    
 1688-48-356     2235.0000000        2250.0095215       -15.009521484    
 1688-55-364     2210.0000000        2237.0019531       -27.001953125    
 1688-61-21      2182.0000000        2210.6655273       -28.665527344    
 1688-66-56      2184.0000000        2236.3015137       -52.301513672    
 1688-71-33      2201.0000000        2249.8464355       -48.846435547    
 1688-71-365     2203.0000000        2251.0871582       -48.087158203    
 1596-12-96      2385.0000000        2389.8347168       -4.8347167969    
 1596-22-81      2353.0000000        2354.5581055       -1.5581054688    
 1596-42-356     2271.0000000        2279.0937500       -8.0937500000    
 1621-42-356     2275.0000000        2282.8854980       -7.8854980469    
 1621-48-356     2242.0000000        2250.7368164       -8.7368164062    
 1621-56-6       2216.0000000        2236.0009766       -20.000976562    
 1621-61-42      2165.0000000        2208.4526367       -43.452636719    
 1621-65-355     2189.0000000        2235.4099121       -46.409912109    
 1621-71-33      2206.0000000        2248.4287109       -42.428710938    
 1621-71-365     2209.0000000        2249.4597168       -40.459716797    
 1605-11-45      2405.0000000        2392.7336426        12.266357422    
 1630-17-87      2382.0000000        2387.8464355       -5.8464355469    
 1630-22-79      2366.0000000        2366.8537598      -0.85375976562    
 1630-42-355     2277.0000000        2286.2580566       -9.2580566406    
 1630-48-356     2242.0000000        2257.3884277       -15.388427734    
 1630-66-59      2198.0000000        2249.9042969       -51.904296875    
 1630-71-33      2210.0000000        2260.6401367       -50.640136719    
 1630-71-365     2211.0000000        2260.8569336       -49.856933594    
 1629-42-355     2274.0000000        2294.5261230       -20.526123047    
 1629-48-356     2242.0000000        2259.6540527       -17.654052734    
 1629-56-9       2225.0000000        2249.4326172       -24.432617188    
 1629-61-21      2198.0000000        2227.1828613       -29.182861328    
 1629-66-59      2199.0000000        2250.7036133       -51.703613281    
 1629-71-33      2211.0000000        2261.1499023       -50.149902344    
 1629-71-365     2213.0000000        2261.5593262       -48.559326172    
 1683-22-79      2379.0000000        2387.2817383       -8.2817382812    
 1683-26-349     2360.0000000        2371.8439941       -11.843994141    
 1683-42-355     2286.0000000        2310.6464844       -24.646484375    
 1683-48-355     2256.0000000        2281.3764648       -25.376464844    
 1683-56-27      2237.0000000        2281.4074707       -44.407470703    
 1683-60-349     2213.0000000        2267.3811035       -54.381103516    
 1683-66-54      2213.0000000        2274.7832031       -61.783203125    
 1679-42-355     2286.0000000        2314.4812012       -28.481201172    
 1679-48-355     2251.0000000        2281.3764648       -30.376464844    
 1679-56-27      2238.0000000        2281.4074707       -43.407470703    
 1679-61-11      2213.0000000        2267.2326660       -54.232666016    
 1680-66-54      2212.0000000        2274.7595215       -62.759521484    
 1654-42-355     2280.0000000        2303.1564941       -23.156494141    
 1654-48-355     2244.0000000        2267.3964844       -23.396484375    
 1654-56-27      2225.0000000        2265.7377930       -40.737792969    
 1654-61-14      2198.0000000        2248.5666504       -50.566650391    
 1654-66-54      2206.0000000        2262.7365723       -56.736572266    
 1654-71-64      2218.0000000        2271.9982910       -53.998291016    
 1654-71-365     2221.0000000        2272.2148438       -51.214843750    
 1660-42-355     2279.0000000        2303.1564941       -24.156494141    
 1660-48-355     2243.0000000        2267.3964844       -24.396484375    
 1660-56-27      2224.0000000        2265.7377930       -41.737792969    
 1660-60-349     2198.0000000        2248.6669922       -50.666992188    
 1660-66-54      2205.0000000        2262.7365723       -57.736572266    
 1660-71-64      2218.0000000        2271.9982910       -53.998291016    
 1660-71-365     2221.0000000        2272.2148438       -51.214843750    
 1554-22-81      2379.0000000        2388.2229004       -9.2229003906    
 1554-27-15      2357.0000000        2363.1557617       -6.1557617188    
 1554-32-60      2340.0000000        2357.6628418       -17.662841797    
 1554-56-26      2254.0000000        2285.2763672       -31.276367188    
 1554-61-12      2230.0000000        2267.0908203       -37.090820312    
 1554-66-59      2227.0000000        2277.1276855       -50.127685547    
 1554-71-54      2233.0000000        2284.2834473       -51.283447266    
 1554-71-365     2236.0000000        2284.5568848       -48.556884766    
 1504-22-60      2375.0000000        2392.2011719       -17.201171875    
 1548-7-158      2406.0000000        2411.8742676       -5.8742675781    
 1548-11-82      2402.0000000        2405.8425293       -3.8425292969    
 1548-17-87      2380.0000000        2388.8371582       -8.8371582031    
 1548-22-81      2365.0000000        2367.1364746       -2.1364746094    
 1548-26-278     2343.0000000        2352.3256836       -9.3256835938    
 1550-48-365     2255.0000000        2273.4113770       -18.411376953    
 1550-56-6       2225.0000000        2259.0954590       -34.095458984    
 1550-61-27      2193.0000000        2230.2023926       -37.202392578    
 1550-66-28      2206.0000000        2250.6948242       -44.694824219    
 1550-71-13      2215.0000000        2261.6965332       -46.696533203    
 1550-71-365     2219.0000000        2261.6281738       -42.628173828    
 1559-66-46      2194.0000000        2240.4006348       -46.400634766    
 1559-71-365     2207.0000000        2251.9357910       -44.935791016    
 1569-32-60      2330.0000000        2336.4138184       -6.4138183594    
 1569-37-89      2305.0000000        2312.2390137       -7.2390136719    
 1569-42-356     2281.0000000        2294.6730957       -13.673095703    
 1569-48-355     2252.0000000        2266.9611816       -14.961181641    
 1569-56-26      2222.0000000        2252.6884766       -30.688476562    
 1569-61-24      2180.0000000        2222.6381836       -42.638183594    
 1569-66-28      2199.0000000        2246.2851562       -47.285156250    
 1569-71-365     2215.0000000        2257.4780273       -42.478027344    
 1540-17-86      2377.0000000        2387.0515137       -10.051513672    
 1540-22-81      2362.0000000        2364.7414551       -2.7414550781    
 1540-26-279     2342.0000000        2350.6687012       -8.6687011719    
 1540-42-355     2284.0000000        2302.2431641       -18.243164062    
 1540-48-355     2257.0000000        2275.0446777       -18.044677734    
 1540-56-26      2232.0000000        2259.5595703       -27.559570312    
 1540-60-350     2200.0000000        2229.9887695       -29.988769531    
 1540-66-28      2205.0000000        2250.4252930       -45.425292969    
 1540-71-365     2218.0000000        2261.0534668       -43.053466797    
 1526-17-87      2378.0000000        2387.8242188       -9.8242187500    
 1526-22-81      2363.0000000        2365.6704102       -2.6704101562    
 1526-26-349     2384.0000000        2350.6977539        33.302246094    
 1526-32-60      2329.0000000        2341.7834473       -12.783447266    
 1526-42-356     2289.0000000        2306.1760254       -17.176025391    
 1526-48-355     2269.0000000        2278.3325195       -9.3325195312    
 1526-56-26      2243.0000000        2262.3928223       -19.392822266    
 1526-60-350     2211.0000000        2234.4592285       -23.459228516    
 1526-65-355     2210.0000000        2251.2812500       -41.281250000    
 1526-71-362     2219.0000000        2261.2941895       -42.294189453    
 1518-42-357     2288.0000000        2307.7077637       -19.707763672    
 1517-71-53      2226.0000000        2272.7136230       -46.713623047    
 1517-71-365     2228.0000000        2272.9750977       -44.975097656    
 1564-56-26      2224.0000000        2242.1274414       -18.127441406    
 1564-71-365     2211.0000000        2247.2121582       -36.212158203    
 1552-12-59      2387.0000000        2379.5302734        7.4697265625    
 1552-17-85      2369.0000000        2364.8012695        4.1987304688    
 1552-22-80      2348.0000000        2342.1525879        5.8474121094    
 1557-42-356     2279.0000000        2285.6848145       -6.6848144531    
 1557-48-355     2255.0000000        2258.0100098       -3.0100097656    
 1557-56-20      2229.0000000        2237.5629883       -8.5629882812    
 1557-71-13      2210.0000000        2233.6081543       -23.608154297    
 1557-71-365     2214.0000000        2236.1423340       -22.142333984    
 1570-2-98       2390.0000000        2390.6284180      -0.62841796875    
 1631-12-96      2393.0000000        2385.4287109        7.5712890625    
 1631-17-87      2379.0000000        2370.9699707        8.0300292969    
 1631-22-80      2357.0000000        2348.9770508        8.0229492188    
 1631-26-279     2340.0000000        2336.6577148        3.3422851562    
 1631-42-355     2287.0000000        2292.9223633       -5.9223632812    
 1631-48-355     2262.0000000        2268.9719238       -6.9719238281    
 1631-56-26      2241.0000000        2250.5576172       -9.5576171875    
 1631-66-32      2212.0000000        2231.4792480       -19.479248047    
 1631-71-33      2220.0000000        2242.1511230       -22.151123047    
 1631-71-365     2226.0000000        2243.7880859       -17.788085938    
 1519-42-355     2288.0000000        2293.2114258       -5.2114257812    
 1519-48-355     2265.0000000        2265.3579102      -0.35791015625    
 1519-56-20      2242.0000000        2246.2458496       -4.2458496094    
 1519-61-18      2212.0000000        2220.0661621       -8.0661621094    
 1519-66-32      2212.0000000        2230.0100098       -18.010009766    
 1519-71-33      2222.0000000        2241.9645996       -19.964599609    
 1519-71-365     2225.0000000        2243.4394531       -18.439453125    
 1542-56-20      2230.0000000        2248.1579590       -18.157958984    
 1542-60-350     2189.0000000        2219.7495117       -30.749511719    
 1542-66-54      2201.0000000        2237.8200684       -36.820068359    
 1542-71-13      2211.0000000        2248.8601074       -37.860107422    
 1542-71-365     2215.0000000        2249.8830566       -34.883056641    
 1520-17-87      2376.0000000        2376.8303223      -0.83032226562    
 1520-22-80      2358.0000000        2353.3254395        4.6745605469    
 1520-32-60      2328.0000000        2332.1931152       -4.1931152344    
 1520-42-356     2288.0000000        2300.1682129       -12.168212891    
 1597-56-27      2221.0000000        2229.4289551       -8.4289550781    
 1597-66-26      2193.0000000        2215.6958008       -22.695800781    
 1597-71-28      2205.0000000        2228.1684570       -23.168457031    
 1597-71-365     2208.0000000        2230.6884766       -22.688476562    
 1581-11-256     2383.0000000        2373.4436035        9.5563964844    
 1583-56-27      2226.0000000        2228.7326660       -2.7326660156    
 1583-66-26      2197.0000000        2210.2675781       -13.267578125    
 1583-71-28      2207.0000000        2221.6328125       -14.632812500    
 1583-71-29      2209.0000000        2221.6418457       -12.641845703    
 1583-71-365     2210.0000000        2224.2265625       -14.226562500    
 1565-71-28      2215.0000000        2231.1076660       -16.107666016    
 1565-71-365     2217.0000000        2233.1203613       -16.120361328    
 1595-11-257     2369.0000000        2363.9333496        5.0666503906    
 1533-8-65       2373.0000000        2368.5354004        4.4645996094    
 1533-12-96      2366.0000000        2359.4890137        6.5109863281    
 1533-17-82      2354.0000000        2347.7941895        6.2058105469    
 1533-22-80      2339.0000000        2330.6372070        8.3627929688    
 1533-27-15      2324.0000000        2318.4890137        5.5109863281    
 1533-42-363     2280.0000000        2275.8854980        4.1145019531    
 1537-42-363     2277.0000000        2274.2832031        2.7167968750    
 1537-48-357     2262.0000000        2252.2290039        9.7709960938    
 1541-66-55      2208.0000000        2210.5502930       -2.5502929688    
 1541-71-76      2217.0000000        2218.8745117       -1.8745117188    
 1541-71-365     2216.0000000        2220.6225586       -4.6225585938    
 1510-42-357     2288.0000000        2279.6286621        8.3713378906    
 1510-48-337     2274.0000000        2259.9316406        14.068359375    
 1510-56-18      2247.0000000        2239.5952148        7.4047851562    
 1510-60-333     2215.0000000        2218.6047363       -3.6047363281    
 1510-65-299     2215.0000000        2215.6330566      -0.63305664062    
 1510-71-11      2226.0000000        2224.4685059        1.5314941406    
 1510-71-365     2232.0000000        2225.8811035        6.1188964844    
 1511-31-351     2321.0000000        2312.1320801        8.8679199219    
 1511-37-27      2298.0000000        2287.4675293        10.532470703    
 1511-42-357     2285.0000000        2279.6286621        5.3713378906    
 1511-48-337     2270.0000000        2259.9316406        10.068359375    
 1511-56-18      2243.0000000        2239.5952148        3.4047851562    
 1511-60-333     2210.0000000        2218.6047363       -8.6047363281    
 1511-65-299     2210.0000000        2215.6330566       -5.6330566406    
 1511-71-12      2223.0000000        2224.4619141       -1.4619140625    
 1511-71-365     2231.0000000        2225.8811035        5.1188964844    
 1512-31-351     2313.0000000        2312.1320801       0.86791992188    
 1512-42-357     2281.0000000        2279.6286621        1.3713378906    
 1512-48-337     2266.0000000        2259.9316406        6.0683593750    
 1512-56-18      2244.0000000        2239.5952148        4.4047851562    
 1513-31-351     2313.0000000        2312.1320801       0.86791992188    
 1513-42-357     2279.0000000        2279.6286621      -0.62866210938    
 1513-48-337     2262.0000000        2259.9316406        2.0683593750    
 1513-56-18      2241.0000000        2239.5952148        1.4047851562    
 1513-60-333     2223.0000000        2218.6047363        4.3952636719    
 1513-65-299     2216.0000000        2215.6330566       0.36694335938    
 1513-71-11      2225.0000000        2224.4685059       0.53149414062    
 1513-71-365     2229.0000000        2225.8811035        3.1188964844    
 1505-66-26      2212.0000000        2225.4345703       -13.434570312    
 1505-71-53      2224.0000000        2235.7641602       -11.764160156    
 1505-71-365     2227.0000000        2237.3176270       -10.317626953    
 1546-8-65       2365.0000000        2362.4160156        2.5839843750    
 1546-10-31      2359.0000000        2359.5090332      -0.50903320312    
 1546-17-82      2340.0000000        2343.5458984       -3.5458984375    
 1546-22-81      2325.0000000        2326.9318848       -1.9318847656    
 1551-42-363     2269.0000000        2268.4226074       0.57739257812    
 1551-48-357     2247.0000000        2249.5844727       -2.5844726562    
 1551-56-13      2223.0000000        2228.4289551       -5.4289550781    
 1551-61-31      2211.0000000        2210.8999023       0.10009765625    
 1551-66-19      2205.0000000        2205.4375000      -0.43750000000    
 1551-71-32      2214.0000000        2213.8376465       0.16235351562    
 1551-71-365     2217.0000000        2215.6252441        1.3747558594    
 1525-10-154     2356.0000000        2355.7802734       0.21972656250    
 1525-22-83      2327.0000000        2326.1459961       0.85400390625    
 1525-32-60      2295.0000000        2302.4526367       -7.4526367188    
 1525-42-363     2270.0000000        2271.6618652       -1.6618652344    
 1525-56-25      2233.0000000        2234.1345215       -1.1345214844    
 1525-60-351     2221.0000000        2217.0114746        3.9885253906    
 1525-66-1       2214.0000000        2211.1044922        2.8955078125    
 1525-71-32      2220.0000000        2216.4528809        3.5471191406    
 1525-71-365     2222.0000000        2217.8056641        4.1943359375    
 1813-17-82      2346.0000000        2345.4599609       0.54003906250    
 1813-22-82      2331.0000000        2328.9765625        2.0234375000    
 1813-26-294     2315.0000000        2316.6625977       -1.6625976562    
 1813-42-363     2274.0000000        2272.5317383        1.4682617188    
 1813-48-357     2254.0000000        2250.9326172        3.0673828125    
 1813-56-25      2232.0000000        2230.4765625        1.5234375000    
 1813-60-351     2216.0000000        2211.9199219        4.0800781250    
 1813-66-19      2211.0000000        2209.2353516        1.7646484375    
 1813-71-32      2219.0000000        2218.1794434       0.82055664062    
 1813-71-365     2221.0000000        2219.8461914        1.1538085938    
 1538-10-154     2366.0000000        2357.2517090        8.7482910156    
 1538-17-86      2350.0000000        2342.2617188        7.7382812500    
 1538-22-82      2333.0000000        2326.2333984        6.7666015625    
 1538-42-363     2276.0000000        2270.0754395        5.9245605469    
 1567-12-59      2335.0000000        2338.1115723       -3.1115722656    
 1567-17-85      2326.0000000        2328.0319824       -2.0319824219    
 1567-22-53      2311.0000000        2313.2724609       -2.2724609375    
 1567-27-15      2301.0000000        2300.5578613       0.44213867188    
 1567-32-65      2290.0000000        2291.3046875       -1.3046875000    
 1578-42-362     2258.0000000        2259.7485352       -1.7485351562    
 1579-34-182     2273.0000000        2280.5205078       -7.5205078125    
 1466-12-96      2355.0000000        2349.7922363        5.2077636719    
 1466-17-89      2342.0000000        2343.8342285       -1.8342285156    
 1466-32-60      2285.0000000        2309.9575195       -24.957519531    
 1466-37-89      2283.0000000        2291.3774414       -8.3774414062    
 1466-42-363     2278.0000000        2285.0371094       -7.0371093750    
 1466-48-357     2273.0000000        2279.0788574       -6.0788574219    
 1466-56-25      2260.0000000        2261.7895508       -1.7895507812    
 1466-71-365     2262.0000000        2224.8474121        37.152587891    
 1467-17-89      2339.0000000        2344.3227539       -5.3227539062    
 1467-22-60      2341.0000000        2331.4885254        9.5114746094    
 1467-48-357     2284.0000000        2279.2749023        4.7250976562    
 1467-56-25      2271.0000000        2262.0227051        8.9772949219    
 1467-60-351     2249.0000000        2243.3071289        5.6928710938    
 1467-65-355     2244.0000000        2229.8994141        14.100585938    
 1467-71-52      2248.0000000        2225.3708496        22.629150391    
 1467-71-365     2251.0000000        2225.2187500        25.781250000    
 1470-17-82      2358.0000000        2354.1491699        3.8508300781    
 1470-22-82      2341.0000000        2337.9382324        3.0617675781    
 1470-42-362     2281.0000000        2285.2458496       -4.2458496094    
 1470-48-357     2261.0000000        2267.9135742       -6.9135742188    
 1470-56-18      2245.0000000        2248.3940430       -3.3940429688    
 1470-60-308     2248.0000000        2230.8283691        17.171630859    
 1470-71-365     2236.0000000        2231.0231934        4.9768066406    
 1500-27-60      2313.0000000        2315.8110352       -2.8110351562    
 1500-42-362     2271.0000000        2277.2377930       -6.2377929688    
 1500-48-357     2256.0000000        2262.0549316       -6.0549316406    
 1500-56-25      2238.0000000        2243.6074219       -5.6074218750    
 1500-60-351     2226.0000000        2227.4938965       -1.4938964844    
 1459-11-68      2372.0000000        2360.9882812        11.011718750    
 1459-17-82      2352.0000000        2350.4052734        1.5947265625    
 1459-22-60      2338.0000000        2335.9301758        2.0698242188    
 1459-26-293     2313.0000000        2321.2773438       -8.2773437500    
 1459-42-363     2281.0000000        2285.5727539       -4.5727539062    
 1459-48-357     2271.0000000        2271.3332520      -0.33325195312    
 1459-56-25      2257.0000000        2256.0817871       0.91821289062    
 1459-60-351     2245.0000000        2238.1535645        6.8464355469    
 1459-66-12      2239.0000000        2229.9760742        9.0239257812    
 1459-71-365     2240.0000000        2229.2436523        10.756347656    
 1455-12-96      2383.0000000        2368.7729492        14.227050781    
 1455-17-82      2366.0000000        2356.8232422        9.1767578125    
 1443-12-96      2386.0000000        2369.2448730        16.755126953    
 1443-17-82      2368.0000000        2358.3906250        9.6093750000    
 1443-32-60      2324.0000000        2318.3244629        5.6755371094    
 1443-38-60      2317.0000000        2296.5756836        20.424316406    
 1443-42-364     2288.0000000        2290.9794922       -2.9794921875    
 1443-48-341     2308.0000000        2275.1501465        32.849853516    
 1486-56-56      2255.0000000        2255.4333496      -0.43334960938    
 1486-71-365     2233.0000000        2237.6801758       -4.6801757812    
 1485-71-365     2233.0000000        2237.6801758       -4.6801757812    
 1475-11-305     2358.0000000        2370.8864746       -12.886474609    
 1465-17-82      2367.0000000        2360.6899414        6.3100585938    
 1465-22-82      2351.0000000        2344.4873047        6.5126953125    
 1465-42-356     2285.0000000        2289.3159180       -4.3159179688    
 1465-48-355     2273.0000000        2275.7304688       -2.7304687500    
 1465-56-25      2256.0000000        2257.1835938       -1.1835937500    
 1465-60-351     2237.0000000        2240.0710449       -3.0710449219    
 1465-66-1       2234.0000000        2232.9038086        1.0961914062    
 1465-71-365     2240.0000000        2235.5935059        4.4064941406    
 1440-17-82      2373.0000000        2368.9982910        4.0017089844    
 1440-22-80      2355.0000000        2350.8544922        4.1455078125    
 1440-32-60      2326.0000000        2325.9653320       3.46679687500E-02
 1440-37-90      2301.0000000        2304.6359863       -3.6359863281    
 1440-48-355     2276.0000000        2278.4873047       -2.4873046875    
 1441-11-283     2409.0000000        2394.2668457        14.733154297    
 1474-17-87      2384.0000000        2383.6286621       0.37133789062    
 1474-22-80      2367.0000000        2362.6862793        4.3137207031    
 1474-61-31      2235.0000000        2249.1044922       -14.104492188    
 1474-71-68      2238.0000000        2258.6359863       -20.635986328    
 1474-71-365     2238.0000000        2259.7072754       -21.707275391    
 1478-48-355     2282.0000000        2285.0158691       -3.0158691406    
 1478-56-26      2259.0000000        2267.5781250       -8.5781250000    
 1478-60-350     2238.0000000        2245.0666504       -7.0666503906    
 1478-65-355     2224.0000000        2249.9931641       -25.993164062    
 1478-71-68      2237.0000000        2257.6601562       -20.660156250    
 1478-71-365     2238.0000000        2258.5864258       -20.586425781    
 1453-17-85      2382.0000000        2379.1711426        2.8288574219    
 1453-22-80      2362.0000000        2359.7092285        2.2907714844    
 1453-42-356     2296.0000000        2306.0292969       -10.029296875    
 1453-48-355     2280.0000000        2286.2309570       -6.2309570312    
 1453-66-49      2244.0000000        2247.3056641       -3.3056640625    
 1453-71-68      2245.0000000        2252.1894531       -7.1894531250    
 1453-71-365     2244.0000000        2252.9870605       -8.9870605469    
 1454-42-356     2295.0000000        2307.4985352       -12.498535156    
 1454-48-355     2279.0000000        2284.7839355       -5.7839355469    
 1454-55-362     2264.0000000        2266.8818359       -2.8818359375    
 1454-61-31      2239.0000000        2245.9370117       -6.9370117188    
 1454-66-49      2238.0000000        2247.9575195       -9.9575195312    
 1454-71-68      2244.0000000        2253.5607910       -9.5607910156    
 1454-71-365     2244.0000000        2254.3737793       -10.373779297    
 1447-66-49      2234.0000000        2249.6093750       -15.609375000    
 1447-71-68      2240.0000000        2254.3808594       -14.380859375    
 1447-71-365     2241.0000000        2255.1533203       -14.153320312    
 1444-42-356     2300.0000000        2315.3059082       -15.305908203    
 1444-48-355     2280.0000000        2292.0522461       -12.052246094    
 1444-55-362     2266.0000000        2274.9333496       -8.9333496094    
 1444-61-6       2244.0000000        2256.5593262       -12.559326172    
 1444-66-49      2245.0000000        2257.4248047       -12.424804688    
 1444-71-68      2248.0000000        2261.7922363       -13.792236328    
 1444-71-365     2249.0000000        2262.5517578       -13.551757812    
 1499-11-360     2412.0000000        2414.9260254       -2.9260253906    
 1499-17-85      2392.0000000        2395.7031250       -3.7031250000    
 1499-22-81      2373.0000000        2375.2329102       -2.2329101562    
 1499-48-355     2278.0000000        2294.1420898       -16.142089844    
 1499-56-20      2259.0000000        2278.2851562       -19.285156250    
 1499-60-350     2237.0000000        2255.8647461       -18.864746094    
 1499-66-14      2227.0000000        2263.8530273       -36.853027344    
 1499-71-64      2230.0000000        2271.2817383       -41.281738281    
 1499-71-365     2231.0000000        2271.6403809       -40.640380859    
 1490-66-45      2231.0000000        2266.8967285       -35.896728516    
 1490-71-64      2237.0000000        2273.7834473       -36.783447266    
 1490-71-365     2236.0000000        2274.1459961       -38.145996094    
 1436-71-64      2247.0000000        2270.7653809       -23.765380859    
 1436-71-365     2247.0000000        2271.3942871       -24.394287109    
 1488-17-87      2396.0000000        2414.2204590       -18.220458984    
 1488-22-81      2374.0000000        2393.8813477       -19.881347656    
 1488-48-350     2281.0000000        2313.6889648       -32.688964844    
 1488-56-20      2281.0000000        2298.7192383       -17.719238281    
 1502-17-85      2394.0000000        2408.5786133       -14.578613281    
 1502-22-81      2374.0000000        2387.9992676       -13.999267578    
 1502-48-365     2275.0000000        2305.0019531       -30.001953125    
 1502-56-20      2259.0000000        2290.7944336       -31.794433594    
 1502-60-350     2239.0000000        2271.8078613       -32.807861328    
 1502-66-46      2231.0000000        2278.6232910       -47.623291016    
 1502-71-54      2236.0000000        2285.0190430       -49.019042969    
 1502-71-365     2237.0000000        2285.3996582       -48.399658203    
 1477-8-69       2422.0000000        2429.8300781       -7.8300781250    
 1477-12-96      2416.0000000        2424.2583008       -8.2583007812    
 1477-17-86      2396.0000000        2404.7551270       -8.7551269531    
 1477-22-81      2375.0000000        2385.9228516       -10.922851562    
 1477-32-60      2339.0000000        2361.2971191       -22.297119141    
 1458-17-85      2403.0000000        2412.5168457       -9.5168457031    
 1458-22-81      2374.0000000        2393.3442383       -19.344238281    
 1458-42-355     2307.0000000        2341.3120117       -34.312011719    
 1458-48-350     2294.0000000        2319.6564941       -25.656494141    
 1458-56-20      2293.0000000        2303.2565918       -10.256591797    
 1458-60-350     2267.0000000        2286.7023926       -19.702392578    
 1458-71-64      2254.0000000        2291.9816895       -37.981689453    
 1458-71-365     2254.0000000        2292.3356934       -38.335693359    
 1460-66-1       2248.0000000        2286.7456055       -38.745605469    
 1460-71-64      2252.0000000        2291.6972656       -39.697265625    
 1460-71-365     2252.0000000        2292.0434570       -40.043457031    
 1429-17-85      2413.0000000        2417.7939453       -4.7939453125    
 1429-22-81      2380.0000000        2398.8544922       -18.854492188    
 1429-42-355     2327.0000000        2352.0988770       -25.098876953    
 1429-48-350     2319.0000000        2334.4814453       -15.481445312    
 1429-56-20      2319.0000000        2317.5473633        1.4526367188    
 1429-60-350     2295.0000000        2302.4270020       -7.4270019531    
 1429-66-53      2283.0000000        2298.6525879       -15.652587891    
 1429-71-13      2281.0000000        2300.7314453       -19.731445312    
 1429-71-365     2281.0000000        2301.1894531       -20.189453125    
 1431-17-85      2421.0000000        2431.1379395       -10.137939453    
 1431-22-82      2385.0000000        2411.9514160       -26.951416016    
 1431-27-63      2379.0000000        2395.0480957       -16.048095703    
 1431-32-60      2360.0000000        2388.3784180       -28.378417969    
 1431-42-355     2337.0000000        2363.6169434       -26.616943359    
 1431-48-350     2329.0000000        2346.6762695       -17.676269531    
 1431-56-20      2334.0000000        2329.3334961        4.6665039062    
 1431-60-350     2307.0000000        2314.9724121       -7.9724121094    
 1431-71-13      2294.0000000        2311.9399414       -17.939941406    
 1431-71-365     2293.0000000        2312.4262695       -19.426269531    
 1392-16-363     2419.0000000        2427.8249512       -8.8249511719    
 1397-22-80      2377.0000000        2375.7744141        1.2255859375    
 1397-42-355     2303.0000000        2319.6166992       -16.616699219    
 1397-48-355     2297.0000000        2304.7189941       -7.7189941406    
 1397-55-361     2287.0000000        2291.5290527       -4.5290527344    
 1397-61-14      2271.0000000        2271.1079102      -0.10791015625    
 1397-66-12      2261.0000000        2265.9782715       -4.9782714844    
 1397-71-68      2263.0000000        2265.6972656       -2.6972656250    
 1397-71-365     2262.0000000        2265.8056641       -3.8056640625    
 1426-12-95      2393.0000000        2379.6596680        13.340332031    
 1426-17-82      2374.0000000        2367.8864746        6.1135253906    
 1426-22-80      2353.0000000        2349.8942871        3.1057128906    
 1426-26-288     2333.0000000        2334.8408203       -1.8408203125    
 1426-42-356     2289.0000000        2299.1313477       -10.131347656    
 1426-48-355     2280.0000000        2283.7639160       -3.7639160156    
 1426-55-350     2272.0000000        2270.8481445        1.1518554688    
 1426-61-13      2254.0000000        2244.9545898        9.0454101562    
 1426-66-12      2248.0000000        2244.9013672        3.0986328125    
 1426-71-54      2251.0000000        2245.1071777        5.8928222656    
 1426-71-365     2251.0000000        2245.4589844        5.5410156250    
 1411-56-25      2327.0000000        2276.7485352        50.251464844    
 1411-61-42      2256.0000000        2250.2717285        5.7282714844    
 1411-66-12      2261.0000000        2249.5266113        11.473388672    
 1411-71-54      2264.0000000        2246.3820801        17.617919922    
 1411-71-365     2265.0000000        2246.3632812        18.636718750    
 1409-61-42      2252.0000000        2250.3784180        1.6215820312    
 1409-66-12      2255.0000000        2250.9333496        4.0666503906    
 1409-71-54      2259.0000000        2247.7287598        11.271240234    
 1409-71-365     2259.0000000        2247.6613770        11.338623047    
 1390-71-68      2273.0000000        2249.0041504        23.995849609    
 1390-71-362     2274.0000000        2248.4975586        25.502441406    
 1416-71-1       2345.0000000        2236.0908203        108.90917969    
 1372-66-5       2260.0000000        2262.9736328       -2.9736328125    
 1372-71-68      2266.0000000        2257.0646973        8.9353027344    
 1372-71-362     2267.0000000        2256.4882812        10.511718750    
 1312-12-265     2428.0000000        2410.8872070        17.112792969    
 1332-71-13      2268.0000000        2278.0415039       -10.041503906    
 1332-71-362     2269.0000000        2277.7551270       -8.7551269531    
 1359-32-69      2369.0000000        2392.6169434       -23.616943359    
 1359-37-95      2357.0000000        2379.6127930       -22.612792969    
 1359-42-356     2342.0000000        2368.4384766       -26.438476562    
 1359-48-334     2340.0000000        2354.7431641       -14.743164062    
 1359-56-19      2336.0000000        2338.6215820       -2.6215820312    
 1359-60-321     2328.0000000        2325.3764648        2.6235351562    
 1359-65-298     2316.0000000        2315.4045410       0.59545898438    
 1359-71-14      2311.0000000        2313.6010742       -2.6010742188    
 1359-71-365     2310.0000000        2313.7497559       -3.7497558594    
 1333-7-28       2444.0000000        2455.1657715       -11.165771484    
 1333-12-95      2441.0000000        2450.0964355       -9.0964355469    
 1333-17-87      2429.0000000        2438.9462891       -9.9462890625    
 1333-32-69      2376.0000000        2398.7509766       -22.750976562    
 1333-56-19      2338.0000000        2345.4440918       -7.4440917969    
 1333-61-60      2326.0000000        2331.6862793       -5.6862792969    
 1333-66-25      2318.0000000        2321.6843262       -3.6843261719    
 1355-32-69      2393.0000000        2414.2133789       -21.213378906    
 1355-37-95      2380.0000000        2399.4682617       -19.468261719    
 1355-42-356     2364.0000000        2388.5534668       -24.553466797    
 1355-48-344     2361.0000000        2375.2375488       -14.237548828    
 1355-56-19      2358.0000000        2359.8398438       -1.8398437500    
 1355-61-60      2344.0000000        2346.6437988       -2.6437988281    
 1355-66-25      2340.0000000        2338.0417480        1.9582519531    
 1355-71-40      2336.0000000        2335.0695801       0.93041992188    
 1295-32-69      2390.0000000        2413.5959473       -23.595947266    
 1295-37-95      2371.0000000        2399.0102539       -28.010253906    
 1295-42-355     2349.0000000        2387.7382812       -38.738281250    
 1295-56-19      2349.0000000        2363.8132324       -14.813232422    
 1295-61-60      2339.0000000        2351.7568359       -12.756835938    
 1289-48-344     2368.0000000        2384.7099609       -16.709960938    
 1289-56-20      2364.0000000        2370.7238770       -6.7238769531    
 1289-61-60      2350.0000000        2358.0725098       -8.0725097656    
 1289-66-25      2344.0000000        2348.9030762       -4.9030761719    
 1289-71-40      2343.0000000        2344.4267578       -1.4267578125    
 1856-33-79      2578.0000000        2575.0458984        2.9541015625    
 1866-42-356     2576.0000000        2582.3073730       -6.3073730469    
 1866-48-348     2579.0000000        2599.2897949       -20.289794922    
 1866-55-347     2585.0000000        2596.5874023       -11.587402344    
 1866-60-356     2566.0000000        2584.9782715       -18.978271484    
 1866-66-5       2562.0000000        2573.9160156       -11.916015625    
 1866-71-39      2575.0000000        2572.2753906        2.7246093750    
 1866-71-41      2576.0000000        2572.2995605        3.7004394531    
 1866-71-365     2573.0000000        2574.2666016       -1.2666015625    
 1859-55-347     2584.0000000        2596.8955078       -12.895507812    
 1859-66-33      2569.0000000        2575.1594238       -6.1594238281    
 1860-42-356     2576.0000000        2582.5952148       -6.5952148438    
 1860-48-348     2583.0000000        2599.5688477       -16.568847656    
 1860-56-5       2587.0000000        2596.3193359       -9.3193359375    
 1860-66-5       2561.0000000        2573.8679199       -12.867919922    
 1860-71-365     2572.0000000        2574.2619629       -2.2619628906    
 1867-66-5       2564.0000000        2573.0104980       -9.0104980469    
 1867-71-365     2574.0000000        2573.4155273       0.58447265625    
 1855-66-5       2562.0000000        2573.0791016       -11.079101562    
 1855-71-365     2571.0000000        2573.4960938       -2.4960937500    
 1876-42-362     2512.0000000        2559.6313477       -47.631347656    
 1876-48-338     2505.0000000        2564.5427246       -59.542724609    
 1876-56-16      2507.0000000        2566.0507812       -59.050781250    
 1750-56-16      2540.0000000        2559.8669434       -19.866943359    
 1750-61-53      2526.0000000        2547.4562988       -21.456298828    
 1750-66-27      2459.0000000        2525.5537109       -66.553710938    
 1730-56-16      2519.0000000        2558.8498535       -39.849853516    
 1730-61-53      2488.0000000        2545.5258789       -57.525878906    
 1730-66-31      2447.0000000        2523.2558594       -76.255859375    
 1835-22-32      2566.0000000        2579.9016113       -13.901611328    
 1835-27-12      2578.0000000        2582.9096680       -4.9096679688    
 1831-1-365      2572.0000000        2581.5195312       -9.5195312500    
 1801-22-32      2571.0000000        2574.5170898       -3.5170898438    
 1801-27-12      2578.0000000        2577.1936035       0.80639648438    
 1739-56-16      2543.0000000        2561.2883301       -18.288330078    
 1739-61-53      2512.0000000        2548.6760254       -36.676025391    
 1739-66-27      2470.0000000        2526.5146484       -56.514648438    
 1725-66-12      2427.0000000        2449.3203125       -22.320312500    
 1725-71-365     2444.0000000        2456.7282715       -12.728271484    
 1761-27-17      2560.0000000        2554.7121582        5.2878417969    
 1761-32-60      2546.0000000        2549.4597168       -3.4597167969    
 1761-42-355     2538.0000000        2535.0468750        2.9531250000    
 1761-48-350     2547.0000000        2536.0690918        10.930908203    
 1761-56-6       2565.0000000        2536.9931641        28.006835938    
 1761-66-1       2523.0000000        2500.6865234        22.313476562    
 1761-71-35      2531.0000000        2505.2636719        25.736328125    
 1761-71-365     2527.0000000        2504.4814453        22.518554688    
 1774-48-365     2512.0000000        2517.5529785       -5.5529785156    
 1774-56-5       2517.0000000        2524.4433594       -7.4433593750    
 1774-66-1       2441.0000000        2489.2692871       -48.269287109    
 1774-71-35      2455.0000000        2497.9086914       -42.908691406    
 1774-71-365     2470.0000000        2496.8405762       -26.840576172    
 1740-1-365      2556.0000000        2553.7021484        2.2978515625    
 1740-16-356     2564.0000000        2553.2019043        10.798095703    
 1853-42-357     2500.0000000        2504.9123535       -4.9123535156    
 1850-48-338     2494.0000000        2489.5024414        4.4975585938    
 1850-56-16      2506.0000000        2484.9951172        21.004882812    
 1850-66-31      2432.0000000        2444.5815430       -12.581542969    
 1850-71-40      2432.0000000        2449.4919434       -17.491943359    
 1895-16-362     2491.0000000        2499.6616211       -8.6616210938    
 1895-22-32      2496.0000000        2499.5446777       -3.5446777344    
 1895-27-12      2495.0000000        2498.2346191       -3.2346191406    
 1737-43-32      2452.0000000        2453.4155273       -1.4155273438    
 1737-48-355     2449.0000000        2447.8242188        1.1757812500    
 1737-56-5       2450.0000000        2441.6435547        8.3564453125    
 1737-61-26      2416.0000000        2418.1352539       -2.1352539062    
 1737-66-28      2390.0000000        2401.1254883       -11.125488281    
 1737-71-35      2403.0000000        2409.7353516       -6.7353515625    
 1737-71-365     2410.0000000        2410.0090332      -9.03320312500E-03
 1802-1-276      2517.0000000        2519.8107910       -2.8107910156    
 1802-4-104      2524.0000000        2520.2036133        3.7963867188    
 1746-42-355     2492.0000000        2474.1760254        17.823974609    
 1746-48-355     2485.0000000        2469.2060547        15.793945312    
 1746-56-11      2478.0000000        2462.3066406        15.693359375    
 1746-61-33      2448.0000000        2439.1149902        8.8850097656    
 1746-66-28      2423.0000000        2420.2624512        2.7375488281    
 1746-71-33      2429.0000000        2427.7658691        1.2341308594    
 1746-71-344     2436.0000000        2428.8623047        7.1376953125    
 1940-42-355     2460.0000000        2459.6125488       0.38745117188    
 1940-48-355     2452.0000000        2458.8503418       -6.8503417969    
 1940-56-5       2458.0000000        2449.0502930        8.9497070312    
 1940-66-1       2399.0000000        2413.1345215       -14.134521484    
 1940-71-35      2414.0000000        2415.8093262       -1.8093261719    
 1940-71-365     2425.0000000        2416.6235352        8.3764648438    
 1925-48-355     2454.0000000        2456.2189941       -2.2189941406    
 1925-56-5       2452.0000000        2446.1040039        5.8959960938    
 1925-61-26      2430.0000000        2430.7192383      -0.71923828125    
 1925-66-32      2401.0000000        2412.5310059       -11.531005859    
 1925-71-35      2415.0000000        2414.2644043       0.73559570312    
 1925-71-365     2425.0000000        2414.9943848        10.005615234    
 1733-2-93       2454.0000000        2480.6582031       -26.658203125    
 1732-12-114     2492.0000000        2482.4140625        9.5859375000    
 1732-16-362     2487.0000000        2479.4052734        7.5947265625    
 1732-27-90      2488.0000000        2469.9763184        18.023681641    
 1732-32-60      2477.0000000        2461.2653809        15.734619141    
 1732-42-357     2451.0000000        2425.5119629        25.488037109    
 1732-48-341     2442.0000000        2409.2883301        32.711669922    
 1732-56-16      2442.0000000        2395.5341797        46.465820312    
 1809-48-355     2456.0000000        2442.7060547        13.293945312    
 1809-55-346     2445.0000000        2432.2458496        12.754150391    
 1809-60-364     2416.0000000        2414.9870605        1.0129394531    
 1809-66-28      2392.0000000        2398.0615234       -6.0615234375    
 1809-71-39      2404.0000000        2403.8369141       0.16308593750    
 1809-71-365     2410.0000000        2405.0410156        4.9589843750    
 1731-56-5       2444.0000000        2421.0344238        22.965576172    
 1731-60-351     2411.0000000        2402.5126953        8.4873046875    
 1731-65-364     2388.0000000        2386.8322754        1.1677246094    
 1731-71-35      2402.0000000        2394.8615723        7.1384277344    
 1731-71-365     2409.0000000        2396.2719727        12.728027344    
 1915-56-13      2454.0000000        2421.0202637        32.979736328    
 1915-60-351     2434.0000000        2409.3884277        24.611572266    
 1915-66-32      2406.0000000        2393.3691406        12.630859375    
 1915-71-55      2421.0000000        2395.3254395        25.674560547    
 1915-71-365     2430.0000000        2395.0695801        34.930419922    
 1869-1-365      2488.0000000        2471.0329590        16.967041016    
 1884-1-52       2488.0000000        2481.8500977        6.1499023438    
 1910-66-32      2249.0000000        2357.0483398       -108.04833984    
 1910-71-365     2261.0000000        2360.3613281       -99.361328125    
 1887-66-32      2240.0000000        2344.3952637       -104.39526367    
 1887-71-365     2251.0000000        2348.4335938       -97.433593750    
 1854-66-48      2237.0000000        2339.9409180       -102.94091797    
 1885-7-322      2430.0000000        2464.5737305       -34.573730469    
 1885-12-116     2429.0000000        2460.5258789       -31.525878906    
 1790-66-48      2237.0000000        2347.8972168       -110.89721680    
 1836-66-48      2246.0000000        2328.1127930       -82.112792969    
 1783-66-48      2233.0000000        2326.8798828       -93.879882812    
 1846-48-355     2447.0000000        2406.3479004        40.652099609    
 1846-55-327     2443.0000000        2388.8806152        54.119384766    
 1846-61-14      2423.0000000        2377.3505859        45.649414062    
 1846-66-48      2393.0000000        2368.5244141        24.475585938    
 1846-71-365     2419.0000000        2372.7243652        46.275634766    
 1845-48-355     2280.0000000        2400.3430176       -120.34301758    
 1845-55-360     2260.0000000        2381.5920410       -121.59204102    
 1845-61-11      2236.0000000        2373.2905273       -137.29052734    
 1845-66-32      2236.0000000        2365.1762695       -129.17626953    
 1845-71-365     2248.0000000        2367.7478027       -119.74780273    
 1916-56-5       2280.0000000        2369.7124023       -89.712402344    
 1916-66-32      2252.0000000        2350.4707031       -98.470703125    
 1916-71-365     2266.0000000        2353.8217773       -87.821777344    
 1911-56-5       2277.0000000        2367.5207520       -90.520751953    
 1911-66-32      2249.0000000        2348.4016113       -99.401611328    
 1911-71-365     2265.0000000        2352.2189941       -87.218994141    
 1897-12-114     2444.0000000        2450.1975098       -6.1975097656    
 1897-27-10      2398.0000000        2427.0993652       -29.099365234    
 1893-66-32      2242.0000000        2339.0332031       -97.033203125    
 1893-71-365     2255.0000000        2343.4523926       -88.452392578    
 1917-48-355     2276.0000000        2323.5681152       -47.568115234    
 1917-66-32      2225.0000000        2304.6489258       -79.648925781    
 1917-71-344     2242.0000000        2311.3278809       -69.327880859    
 1672-66-45      2225.0000000        2294.4304199       -69.430419922    
 1647-12-332     2378.0000000        2431.5920410       -53.592041016    
 1647-16-355     2370.0000000        2421.4201660       -51.420166016    
 1659-22-81      2389.0000000        2410.4934082       -21.493408203    
 1659-42-356     2300.0000000        2343.5656738       -43.565673828    
 1659-48-355     2266.0000000        2315.6962891       -49.696289062    
 1659-56-6       2251.0000000        2307.7597656       -56.759765625    
 1659-60-354     2231.0000000        2296.7895508       -65.789550781    
 1659-66-45      2228.0000000        2299.1657715       -71.165771484    
 1659-71-365     2239.0000000        2306.1821289       -67.182128906    
 1682-48-355     2254.0000000        2297.2480469       -43.248046875    
 1707-42-355     2288.0000000        2326.3820801       -38.382080078    
 1707-48-355     2254.0000000        2297.2480469       -43.248046875    
 1707-56-26      2242.0000000        2294.7919922       -52.791992188    
 1707-60-354     2220.0000000        2282.5900879       -62.590087891    
 1707-66-45      2218.0000000        2287.3300781       -69.330078125    
 1707-71-365     2230.0000000        2295.0541992       -65.054199219    
 1712-42-355     2287.0000000        2324.5495605       -37.549560547    
 1712-48-355     2252.0000000        2294.9731445       -42.973144531    
 1712-56-5       2241.0000000        2292.4343262       -51.434326172    
 1712-61-14      2219.0000000        2280.1896973       -61.189697266    
 1712-65-355     2216.0000000        2286.1535645       -70.153564453    
 1712-71-67      2227.0000000        2292.7761230       -65.776123047    
 1712-71-365     2230.0000000        2293.3039551       -63.303955078    
 1671-22-79      2383.0000000        2399.9235840       -16.923583984    
 1671-42-355     2291.0000000        2327.3405762       -36.340576172    
 1671-48-355     2257.0000000        2297.9323730       -40.932373047    
 1671-56-20      2242.0000000        2295.9677734       -53.967773438    
 1627-22-82      2391.0000000        2408.2280273       -17.228027344    
 1627-32-90      2353.0000000        2376.7785645       -23.778564453    
 1627-37-90      2326.0000000        2356.3227539       -30.322753906    
 1627-42-356     2305.0000000        2339.4414062       -34.441406250    
 1627-48-350     2268.0000000        2311.0197754       -43.019775391    
 1627-55-360     2254.0000000        2304.6088867       -50.608886719    
 1627-61-12      2234.0000000        2292.7036133       -58.703613281    
 1627-66-1       2232.0000000        2296.2639160       -64.263916016    
 1627-71-53      2240.0000000        2302.2204590       -62.220458984    
 1627-71-365     2243.0000000        2302.9907227       -59.990722656    
 1607-1-276      2426.0000000        2441.9970703       -15.997070312    
 1607-6-269      2424.0000000        2440.5676270       -16.567626953    
 1607-11-269     2418.0000000        2435.6767578       -17.676757812    
 1598-66-45      2231.0000000        2297.3540039       -66.354003906    
 1643-27-90      2380.0000000        2443.3801270       -63.380126953    
 1632-22-82      2403.0000000        2425.2236328       -22.223632812    
 1632-27-15      2382.0000000        2408.2192383       -26.219238281    
 1632-32-77      2361.0000000        2395.5124512       -34.512451172    
 1632-42-356     2316.0000000        2359.4489746       -43.448974609    
 1632-48-355     2282.0000000        2335.4304199       -53.430419922    
 1632-56-6       2266.0000000        2321.6013184       -55.601318359    
 1632-60-354     2245.0000000        2311.1926270       -66.192626953    
 1632-66-48      2242.0000000        2309.8349609       -67.834960938    
 1632-71-53      2250.0000000        2315.8015137       -65.801513672    
 1632-71-365     2253.0000000        2316.9243164       -63.924316406    
 1677-32-64      2477.0000000        2474.1184082        2.8815917969    
 1677-42-355     2451.0000000        2430.2187500        20.781250000    
 1677-48-351     2439.0000000        2404.8825684        34.117431641    
 1677-56-5       2443.0000000        2400.5402832        42.459716797    
 1677-61-26      2407.0000000        2372.8176270        34.182373047    
 1677-66-39      2386.0000000        2364.4323730        21.567626953    
 1677-71-35      2403.0000000        2378.4323730        24.567626953    
 1677-71-365     2408.0000000        2379.1484375        28.851562500    
 1646-27-90      2489.0000000        2470.7973633        18.202636719    
 1646-32-64      2482.0000000        2460.2187500        21.781250000    
 1646-42-355     2446.0000000        2415.7304688        30.269531250    
 1646-48-350     2434.0000000        2386.6962891        47.303710938    
 1646-56-5       2437.0000000        2381.0173340        55.982666016    
 1646-61-26      2402.0000000        2354.3942871        47.605712891    
 1646-66-39      2382.0000000        2346.9550781        35.044921875    
 1646-71-39      2400.0000000        2362.4204102        37.579589844    
 1646-71-365     2406.0000000        2363.4477539        42.552246094    
 1602-42-355     2336.0000000        2415.2319336       -79.231933594    
 1602-48-350     2264.0000000        2377.0939941       -113.09399414    
 1602-71-35      2252.0000000        2354.3474121       -102.34741211    
 1602-71-365     2254.0000000        2355.1164551       -101.11645508    
 1601-42-355     2335.0000000        2413.0998535       -78.099853516    
 1601-48-350     2261.0000000        2373.1494141       -112.14941406    
 1601-55-348     2268.0000000        2370.1157227       -102.11572266    
 1601-61-14      2211.0000000        2340.1054688       -129.10546875    
 1601-66-19      2208.0000000        2334.6345215       -126.63452148    
 1601-71-35      2254.0000000        2354.8242188       -100.82421875    
 1601-71-365     2255.0000000        2355.5073242       -100.50732422    
 1674-10-253     2532.0000000        2514.5886230        17.411376953    
 1676-42-355     2484.0000000        2461.9587402        22.041259766    
 1676-48-350     2487.0000000        2452.0202637        34.979736328    
 1676-55-349     2473.0000000        2443.7448730        29.255126953    
 1676-61-27      2442.0000000        2418.0263672        23.973632812    
 1676-66-19      2415.0000000        2403.4294434        11.570556641    
 1676-71-35      2419.0000000        2412.6052246        6.3947753906    
 1676-71-365     2429.0000000        2413.4934082        15.506591797    
 1645-32-77      2486.0000000        2484.2775879        1.7224121094    
 1645-42-355     2454.0000000        2441.0795898        12.920410156    
 1645-55-360     2447.0000000        2413.8840332        33.115966797    
 1645-60-356     2411.0000000        2385.7797852        25.220214844    
 1645-66-1       2384.0000000        2375.9946289        8.0053710938    
 1645-71-35      2400.0000000        2388.3046875        11.695312500    
 1645-71-365     2406.0000000        2388.8940430        17.105957031    
 1604-32-77      2471.0000000        2469.6264648        1.3735351562    
 1604-42-355     2439.0000000        2425.7368164        13.263183594    
 1604-48-350     2422.0000000        2389.5930176        32.406982422    
 1604-55-360     2425.0000000        2383.4938965        41.506103516    
 1604-60-362     2397.0000000        2353.8037109        43.196289062    
 1604-71-48      2392.0000000        2364.8815918        27.118408203    
 1604-71-365     2295.0000000        2365.8977051       -70.897705078    
 1640-55-360     2486.0000000        2499.8391113       -13.839111328    
 1640-60-356     2455.0000000        2476.9755859       -21.975585938    
 1640-66-19      2415.0000000        2452.4384766       -37.438476562    
 1640-71-22      2426.0000000        2462.9711914       -36.971191406    
 1640-71-365     2433.0000000        2461.7631836       -28.763183594    
 1720-66-5       2502.0000000        2539.4177246       -37.417724609    
 1720-71-22      2498.0000000        2540.3852539       -42.385253906    
 1720-71-365     2505.0000000        2540.0424805       -35.042480469    
 1706-33-318     2550.0000000        2557.4965820       -7.4965820312    
 1669-7-32       2537.0000000        2554.0678711       -17.067871094    
 1669-12-106     2531.0000000        2551.9887695       -20.988769531    
 1669-32-68      2527.0000000        2548.2526855       -21.252685547    
 1669-38-60      2519.0000000        2541.0141602       -22.014160156    
 1669-42-354     2509.0000000        2535.0114746       -26.011474609    
 1622-32-68      2527.0000000        2545.7319336       -18.731933594    
 1622-38-60      2519.0000000        2538.1303711       -19.130371094    
 1622-42-354     2506.0000000        2530.1662598       -24.166259766    
 1622-48-341     2497.0000000        2524.7800293       -27.780029297    
 1622-56-17      2489.0000000        2506.0239258       -17.023925781    
 1622-61-54      2461.0000000        2488.7416992       -27.741699219    
 1622-66-32      2420.0000000        2466.4760742       -46.476074219    
 1556-61-27      2456.0000000        2466.6860352       -10.686035156    
 1556-66-5       2432.0000000        2475.7177734       -43.717773438    
 1556-71-22      2436.0000000        2474.5869141       -38.586914062    
 1556-71-365     2439.0000000        2474.2263184       -35.226318359    
 1553-7-336      2538.0000000        2529.8767090        8.1232910156    
 1553-12-106     2533.0000000        2529.1267090        3.8732910156    
 1553-42-354     2503.0000000        2486.0842285        16.915771484    
 1553-48-341     2490.0000000        2460.5471191        29.452880859    
 1568-33-234     2528.0000000        2514.4069824        13.593017578    
 1568-48-341     2497.0000000        2460.4716797        36.528320312    
 1594-71-22      2425.0000000        2392.0371094        32.962890625    
 1594-71-365     2432.0000000        2395.2292480        36.770751953    
 1563-32-68      2526.0000000        2502.7155762        23.284423828    
 1563-37-48      2507.0000000        2485.9023438        21.097656250    
 1563-42-355     2500.0000000        2465.3764648        34.623535156    
 1563-48-348     2488.0000000        2435.4409180        52.559082031    
 1563-56-6       2480.0000000        2417.6528320        62.347167969    
 1553-15-99      2533.0000000        2527.8271484        5.1728515625    
 1522-42-355     2506.0000000        2492.9125977        13.087402344    
 1522-48-348     2488.0000000        2465.3242188        22.675781250    
 1527-55-354     2475.0000000        2447.1804199        27.819580078    
 1527-61-54      2451.0000000        2409.7036133        41.296386719    
 1527-66-32      2420.0000000        2388.7736816        31.226318359    
 1527-71-22      2426.0000000        2398.3493652        27.650634766    
 1527-71-365     2430.0000000        2398.9504395        31.049560547    
 1589-42-355     2468.0000000        2457.8925781        10.107421875    
 1589-48-350     2453.0000000        2427.6184082        25.381591797    
 1589-55-360     2454.0000000        2412.1413574        41.858642578    
 1589-61-14      2417.0000000        2390.2861328        26.713867188    
 1589-66-32      2394.0000000        2358.4670410        35.532958984    
 1589-71-22      2404.0000000        2376.8081055        27.191894531    
 1589-71-365     2408.0000000        2379.9606934        28.039306641    
 1586-32-68      2475.0000000        2474.0383301       0.96166992188    
 1586-48-356     2414.0000000        2391.9997559        22.000244141    
 1586-56-6       2423.0000000        2385.8537598        37.146240234    
 1586-60-356     2377.0000000        2358.9833984        18.016601562    
 1586-66-1       2371.0000000        2348.9384766        22.061523438    
 1586-71-35      2390.0000000        2363.7929688        26.207031250    
 1586-71-365     2393.0000000        2365.6076660        27.392333984    
 1532-42-355     2430.0000000        2426.3964844        3.6035156250    
 1532-48-348     2407.0000000        2387.9052734        19.094726562    
 1532-55-354     2420.0000000        2381.7539062        38.246093750    
 1532-61-28      2365.0000000        2356.3830566        8.6169433594    
 1532-66-46      2371.0000000        2342.5869141        28.413085938    
 1532-71-22      2384.0000000        2356.8354492        27.164550781    
 1532-71-365     2386.0000000        2359.2539062        26.746093750    
 1534-42-355     2432.0000000        2416.6911621        15.308837891    
 1534-48-348     2408.0000000        2381.2272949        26.772705078    
 1534-55-360     2413.0000000        2373.3654785        39.634521484    
 1534-61-5       2374.0000000        2348.2021484        25.797851562    
 1534-66-46      2373.0000000        2339.7492676        33.250732422    
 1534-71-35      2386.0000000        2352.6794434        33.320556641    
 1534-71-365     2388.0000000        2354.1804199        33.819580078    
 1524-42-355     2467.0000000        2449.3786621        17.621337891    
 1524-48-348     2449.0000000        2414.0541992        34.945800781    
 1524-56-6       2450.0000000        2399.2065430        50.793457031    
 1524-60-356     2418.0000000        2377.2045898        40.795410156    
 1524-66-1       2399.0000000        2345.2468262        53.753173828    
 1524-71-48      2406.0000000        2362.4956055        43.504394531    
 1524-71-365     2408.0000000        2365.5764160        42.423583984    
 1561-21-340     2488.0000000        2479.2207031        8.7792968750    
 1561-32-64      2474.0000000        2455.9931641        18.006835938    
 1561-42-355     2435.0000000        2412.9228516        22.077148438    
 1561-48-350     2413.0000000        2376.9458008        36.054199219    
 1561-55-360     2415.0000000        2366.8486328        48.151367188    
 1561-61-26      2375.0000000        2338.1196289        36.880371094    
 1561-66-46      2370.0000000        2330.8088379        39.191162109    
 1561-71-39      2389.0000000        2349.8889160        39.111083984    
 1561-71-365     2389.0000000        2350.7309570        38.269042969    
 1571-2-94       2432.0000000        2479.1220703       -47.122070312    
 1572-48-356     2300.0000000        2367.2380371       -67.238037109    
 1572-56-6       2274.0000000        2350.5090332       -76.509033203    
 1572-61-26      2244.0000000        2331.0895996       -87.089599609    
 1572-66-12      2245.0000000        2328.0859375       -83.085937500    
 1572-71-48      2258.0000000        2338.4804688       -80.480468750    
 1572-71-365     2261.0000000        2340.1062012       -79.106201172    
 1549-21-319     2437.0000000        2472.4160156       -35.416015625    
 1549-56-6       2281.0000000        2359.2922363       -78.292236328    
 1549-60-356     2224.0000000        2334.2485352       -110.24853516    
 1549-65-350     2214.0000000        2328.7683105       -114.76831055    
 1549-71-67      2262.0000000        2344.5461426       -82.546142578    
 1549-71-365     2261.0000000        2345.7373047       -84.737304688    
 1547-27-62      2388.0000000        2452.0412598       -64.041259766    
 1521-42-355     2372.0000000        2401.0998535       -29.099853516    
 1521-48-350     2352.0000000        2375.0439453       -23.043945312    
 1521-55-360     2338.0000000        2355.0068359       -17.006835938    
 1521-60-356     2321.0000000        2339.1389160       -18.138916016    
 1521-66-46      2311.0000000        2332.6369629       -21.636962891    
 1521-71-48      2316.0000000        2339.6064453       -23.606445312    
 1521-71-365     2317.0000000        2341.1452637       -24.145263672    
 1573-48-356     2281.0000000        2339.4404297       -58.440429688    
 1573-55-360     2268.0000000        2323.8779297       -55.877929688    
 1573-60-357     2244.0000000        2312.4338379       -68.433837891    
 1573-66-54      2243.0000000        2311.5219727       -68.521972656    
 1573-71-19      2248.0000000        2316.2163086       -68.216308594    
 1573-71-365     2252.0000000        2317.9704590       -65.970458984    
 1545-32-77      2351.0000000        2397.0722656       -46.072265625    
 1545-42-356     2319.0000000        2365.5236816       -46.523681641    
 1545-48-350     2289.0000000        2340.9165039       -51.916503906    
 1545-56-11      2270.0000000        2324.9086914       -54.908691406    
 1545-61-14      2247.0000000        2312.7712402       -65.771240234    
 1545-66-54      2248.0000000        2312.4125977       -64.412597656    
 1545-71-19      2254.0000000        2316.3923340       -62.392333984    
 1545-71-365     2257.0000000        2318.2426758       -61.242675781    
 1535-42-356     2320.0000000        2372.5742188       -52.574218750    
 1535-48-350     2292.0000000        2348.3415527       -56.341552734    
 1535-56-11      2272.0000000        2330.5285645       -58.528564453    
 1535-60-357     2251.0000000        2318.7392578       -67.739257812    
 1535-66-47      2250.0000000        2316.7102051       -66.710205078    
 1535-71-19      2256.0000000        2320.6269531       -64.626953125    
 1535-71-365     2259.0000000        2322.5676270       -63.567626953    
 1507-42-356     2326.0000000        2369.2255859       -43.225585938    
 1507-48-350     2302.0000000        2346.5891113       -44.589111328    
 1507-56-11      2271.0000000        2329.7094727       -58.709472656    
 1507-60-357     2251.0000000        2316.6176758       -65.617675781    
 1507-66-54      2262.0000000        2316.4960938       -54.496093750    
 1507-71-19      2264.0000000        2318.7761230       -54.776123047    
 1507-71-365     2267.0000000        2320.5830078       -53.583007812    
 1523-16-54      2421.0000000        2449.7551270       -28.755126953    
 1575-22-81      2393.0000000        2415.9270020       -22.927001953    
 1575-32-77      2347.0000000        2382.3920898       -35.392089844    
 1575-42-356     2309.0000000        2349.4326172       -40.432617188    
 1575-48-350     2282.0000000        2321.7763672       -39.776367188    
 1575-55-343     2259.0000000        2311.5322266       -52.532226562    
 1575-61-11      2235.0000000        2298.3530273       -63.353027344    
 1575-71-365     2245.0000000        2308.1337891       -63.133789062    
 1577-22-81      2388.0000000        2402.2814941       -14.281494141    
 1580-42-355     2298.0000000        2334.1325684       -36.132568359    
 1580-48-355     2264.0000000        2303.8735352       -39.873535156    
 1580-56-13      2247.0000000        2295.8471680       -48.847167969    
 1580-61-12      2227.0000000        2281.6015625       -54.601562500    
 1580-66-54      2229.0000000        2288.2814941       -59.281494141    
 1580-71-365     2239.0000000        2295.7512207       -56.751220703    
 1536-17-79      2407.0000000        2418.0998535       -11.099853516    
 1536-22-82      2382.0000000        2398.0100098       -16.010009766    
 1536-32-77      2338.0000000        2365.3923340       -27.392333984    
 1536-42-356     2301.0000000        2333.0314941       -32.031494141    
 1536-48-350     2273.0000000        2303.5568848       -30.556884766    
 1536-55-340     2255.0000000        2293.4418945       -38.441894531    
 1536-66-54      2231.0000000        2286.4277344       -55.427734375    
 1536-71-365     2239.0000000        2293.0354004       -54.035400391    
 1516-42-356     2308.0000000        2345.4433594       -37.443359375    
 1516-48-350     2286.0000000        2319.1999512       -33.199951172    
 1516-56-11      2261.0000000        2305.8349609       -44.834960938    
 1516-61-27      2234.0000000        2287.4243164       -53.424316406    
 1516-66-54      2242.0000000        2296.5839844       -54.583984375    
 1516-71-365     2249.0000000        2302.2770996       -53.277099609    
 1528-22-82      2382.0000000        2413.3017578       -31.301757812    
 1528-27-63      2368.0000000        2390.1936035       -22.193603516    
 1528-32-77      2344.0000000        2379.0439453       -35.043945312    
 1528-65-350     2242.0000000        2301.1616211       -59.161621094    
 1528-71-365     2251.0000000        2306.5449219       -55.544921875    
 1514-42-356     2309.0000000        2356.7346191       -47.734619141    
 1514-48-350     2287.0000000        2332.0395508       -45.039550781    
 1514-55-340     2267.0000000        2317.4943848       -50.494384766    
 1514-61-27      2237.0000000        2300.4753418       -63.475341797    
 1514-66-54      2245.0000000        2306.0007324       -61.000732422    
 1514-71-48      2248.0000000        2309.2307129       -61.230712891    
 1514-71-365     2252.0000000        2311.1665039       -59.166503906    
 1495-42-356     2327.0000000        2373.9848633       -46.984863281    
 1495-48-350     2304.0000000        2351.8183594       -47.818359375    
 1495-55-343     2283.0000000        2334.2924805       -51.292480469    
 1495-61-41      2259.0000000        2321.2429199       -62.242919922    
 1495-66-54      2265.0000000        2320.3728027       -55.372802734    
 1495-71-19      2266.0000000        2322.1909180       -56.190917969    
 1495-71-365     2269.0000000        2323.7053223       -54.705322266    
 1484-37-343     2324.0000000        2376.9062500       -52.906250000    
 1484-42-356     2322.0000000        2370.7341309       -48.734130859    
 1484-56-11      2270.0000000        2331.7995605       -61.799560547    
 1484-60-357     2250.0000000        2318.1562500       -68.156250000    
 1484-66-53      2257.0000000        2318.3850098       -61.385009766    
 1484-71-19      2258.0000000        2319.7778320       -61.777832031    
 1484-71-365     2265.0000000        2321.2167969       -56.216796875    
 1463-56-34      2297.0000000        2336.0451660       -39.045166016    
 1463-60-357     2276.0000000        2323.3469238       -47.346923828    
 1463-66-53      2277.0000000        2322.2126465       -45.212646484    
 1463-71-19      2276.0000000        2322.9370117       -46.937011719    
 1463-71-365     2278.0000000        2323.9846191       -45.984619141    
 1483-42-355     2409.0000000        2418.8544922       -9.8544921875    
 1483-48-348     2395.0000000        2393.3671875        1.6328125000    
 1483-56-6       2382.0000000        2374.2973633        7.7026367188    
 1483-60-357     2365.0000000        2358.5715332        6.4284667969    
 1483-66-46      2356.0000000        2347.7822266        8.2177734375    
 1483-71-35      2356.0000000        2351.8198242        4.1801757812    
 1483-71-365     2356.0000000        2352.5993652        3.4006347656    
 1437-16-300     2470.0000000        2482.4018555       -12.401855469    
 1437-22-32      2449.0000000        2475.5373535       -26.537353516    
 1437-27-12      2454.0000000        2465.4311523       -11.431152344    
 1438-42-362     2383.0000000        2410.2763672       -27.276367188    
 1438-56-20      2383.0000000        2368.9130859        14.086914062    
 1438-61-53      2377.0000000        2359.7614746        17.238525391    
 1438-66-32      2368.0000000        2348.8918457        19.108154297    
 1438-71-40      2365.0000000        2348.4719238        16.528076172    
 1445-27-76      2457.0000000        2477.9929199       -20.992919922    
 1445-32-55      2454.0000000        2467.3149414       -13.314941406    
 1445-42-356     2429.0000000        2424.7038574        4.2961425781    
 1445-48-348     2419.0000000        2401.4355469        17.564453125    
 1445-55-360     2412.0000000        2380.9326172        31.067382812    
 1445-60-357     2392.0000000        2367.3125000        24.687500000    
 1445-66-1       2384.0000000        2355.2016602        28.798339844    
 1445-71-35      2382.0000000        2356.0556641        25.944335938    
 1445-71-365     2381.0000000        2356.4243164        24.575683594    
 1489-32-63      2477.0000000        2479.7009277       -2.7009277344    
 1489-42-355     2437.0000000        2428.3715820        8.6284179688    
 1489-48-348     2415.0000000        2396.8452148        18.154785156    
 1489-55-353     2411.0000000        2384.3752441        26.624755859    
 1489-61-28      2385.0000000        2360.3186035        24.681396484    
 1489-66-39      2384.0000000        2350.4746094        33.525390625    
 1489-71-22      2387.0000000        2355.1611328        31.838867188    
 1489-71-365     2387.0000000        2357.1564941        29.843505859    
 1469-42-355     2488.0000000        2438.5290527        49.470947266    
 1469-48-348     2462.0000000        2407.1057129        54.894287109    
 1469-55-357     2471.0000000        2393.9609375        77.039062500    
 1469-61-54      2436.0000000        2367.2827148        68.717285156    
 1494-66-46      2436.0000000        2354.7307129        81.269287109    
 1469-71-71      2437.0000000        2359.6755371        77.324462891    
 1469-71-365     2438.0000000        2361.4340820        76.565917969    
 1464-12-102     2539.0000000        2514.5798340        24.420166016    
 1464-32-63      2521.0000000        2497.3955078        23.604492188    
 1464-42-354     2480.0000000        2446.8518066        33.148193359    
 1439-37-90      2487.0000000        2466.0212402        20.978759766    
 1439-42-355     2474.0000000        2444.7529297        29.247070312    
 1439-48-348     2451.0000000        2411.6076660        39.392333984    
 1439-56-6       2453.0000000        2401.1037598        51.896240234    
 1439-61-28      2422.0000000        2370.7756348        51.224365234    
 1439-66-46      2429.0000000        2365.6166992        63.383300781    
 1439-71-71      2424.0000000        2363.8923340        60.107666016    
 1439-71-365     2426.0000000        2365.4528809        60.547119141    
 1435-42-355     2478.0000000        2447.7856445        30.214355469    
 1435-48-348     2456.0000000        2411.7871094        44.212890625    
 1435-55-361     2461.0000000        2406.1818848        54.818115234    
 1435-61-11      2440.0000000        2369.5449219        70.455078125    
 1435-66-49      2431.0000000        2369.1442871        61.855712891    
 1435-71-71      2426.0000000        2365.2685547        60.731445312    
 1435-71-365     2429.0000000        2367.1076660        61.892333984    
 1449-37-30      2521.0000000        2553.1621094       -32.162109375    
 1414-7-138      2553.0000000        2586.6225586       -33.622558594    
 1414-32-64      2546.0000000        2581.2863770       -35.286376953    
 1414-38-60      2536.0000000        2576.1166992       -40.116699219    
 1414-42-354     2520.0000000        2569.1730957       -49.173095703    
 1379-71-356     2481.0000000        2514.5424805       -33.542480469    
 1425-2-94       2555.0000000        2550.7480469        4.2519531250    
 1425-16-359     2546.0000000        2548.8525391       -2.8525390625    
 1425-22-32      2543.0000000        2547.2014160       -4.2014160156    
 1425-27-12      2529.0000000        2545.8669434       -16.866943359    
 1382-42-355     2493.0000000        2488.4606934        4.5393066406    
 1382-48-348     2482.0000000        2471.2038574        10.796142578    
 1382-56-6       2480.0000000        2456.0449219        23.955078125    
 1382-61-54      2469.0000000        2443.9946289        25.005371094    
 1382-66-46      2455.0000000        2432.7072754        22.292724609    
 1382-71-22      2447.0000000        2427.5490723        19.450927734    
 1382-71-365     2447.0000000        2426.1418457        20.858154297    
 1413-32-64      2464.0000000        2459.6235352        4.3764648438    
 1413-37-48      2451.0000000        2441.1013184        9.8986816406    
 1413-56-6       2328.0000000        2387.2438965       -59.243896484    
 1413-61-26      2424.0000000        2377.8349609        46.165039062    
 1413-66-53      2410.0000000        2365.4255371        44.574462891    
 1413-71-48      2401.0000000        2362.2680664        38.731933594    
 1395-32-64      2455.0000000        2452.7175293        2.2824707031    
 1395-42-355     2427.0000000        2423.0861816        3.9138183594    
 1395-48-348     2425.0000000        2406.4040527        18.595947266    
 1395-56-6       2418.0000000        2387.8073730        30.192626953    
 1395-61-26      2413.0000000        2377.9868164        35.013183594    
 1395-66-1       2404.0000000        2367.5607910        36.439208984    
 1395-71-48      2398.0000000        2362.3935547        35.606445312    
 1395-71-365     2396.0000000        2361.9570312        34.042968750    
 1377-35-16      2432.0000000        2444.0300293       -12.030029297    
 1377-42-355     2423.0000000        2427.5874023       -4.5874023438    
 1377-48-348     2420.0000000        2414.1674805        5.8325195312    
 1377-56-6       2414.0000000        2395.3576660        18.642333984    
 1377-61-26      2408.0000000        2384.7658691        23.234130859    
 1377-66-53      2401.0000000        2374.7868652        26.213134766    
 1377-71-365     2394.0000000        2368.4548340        25.545166016    
 1394-42-355     2458.0000000        2442.4570312        15.542968750    
 1394-48-348     2453.0000000        2426.8669434        26.133056641    
 1394-56-6       2446.0000000        2406.4921875        39.507812500    
 1394-61-26      2438.0000000        2396.9384766        41.061523438    
 1394-66-53      2427.0000000        2383.4299316        43.570068359    
 1394-71-365     2418.0000000        2378.6657715        39.334228516    
 1375-32-64      2490.0000000        2486.6787109        3.3212890625    
 1375-42-355     2474.0000000        2456.4230957        17.576904297    
 1375-48-348     2471.0000000        2444.2998047        26.700195312    
 1375-56-6       2464.0000000        2425.0356445        38.964355469    
 1375-61-26      2457.0000000        2415.6633301        41.336669922    
 1375-66-53      2446.0000000        2403.3820801        42.617919922    
 1375-71-365     2437.0000000        2396.3515625        40.648437500    
 1396-17-90      2452.0000000        2457.8898926       -5.8898925781    
 1396-22-81      2425.0000000        2443.9328613       -18.932861328    
 1396-32-63      2415.0000000        2423.6472168       -8.6472167969    
 1396-42-355     2389.0000000        2398.1972656       -9.1972656250    
 1396-48-350     2386.0000000        2383.4011230        2.5988769531    
 1396-56-11      2379.0000000        2365.3317871        13.668212891    
 1396-61-26      2365.0000000        2353.2504883        11.749511719    
 1396-66-53      2360.0000000        2345.9204102        14.079589844    
 1396-71-365     2352.0000000        2342.5197754        9.4802246094    
 1415-22-82      2419.0000000        2428.4333496       -9.4333496094    
 1415-32-63      2387.0000000        2405.1721191       -18.172119141    
 1415-37-90      2374.0000000        2393.7751465       -19.775146484    
 1415-42-355     2364.0000000        2382.2094727       -18.209472656    
 1415-48-350     2358.0000000        2366.6091309       -8.6091308594    
 1415-56-11      2354.0000000        2348.5507812        5.4492187500    
 1415-61-27      2338.0000000        2335.4663086        2.5336914062    
 1415-66-49      2329.0000000        2330.0336914       -1.0336914062    
 1415-71-365     2322.0000000        2328.9328613       -6.9328613281    
 1323-2-88       2488.0000000        2493.8684082       -5.8684082031    
 1368-17-85      2462.0000000        2463.9177246       -1.9177246094    
 1368-22-81      2445.0000000        2449.9201660       -4.9201660156    
 1368-27-15      2436.0000000        2442.0729980       -6.0729980469    
 1368-42-355     2399.0000000        2407.9772949       -8.9772949219    
 1368-55-339     2388.0000000        2377.8190918        10.180908203    
 1368-66-49      2374.0000000        2357.4545898        16.545410156    
 1368-71-365     2362.0000000        2351.8518066        10.148193359    
 1327-71-365     2447.0000000        2407.5161133        39.483886719    
 1369-71-365     2420.0000000        2382.7402344        37.259765625    
 1326-71-365     2429.0000000        2395.2778320        33.722167969    
 1302-71-365     2442.0000000        2410.2116699        31.788330078    
 1269-37-48      2533.0000000        2551.6760254       -18.676025391    
 1269-66-1       2514.0000000        2505.5715332        8.4284667969    
 1269-71-365     2500.0000000        2496.2661133        3.7338867188    
 1277-66-59      2516.0000000        2504.5644531        11.435546875    
 1330-48-345     2523.0000000        2519.8520508        3.1479492188    
 1330-56-17      2523.0000000        2506.6860352        16.313964844    
 1322-2-94       2574.0000000        2554.1264648        19.873535156    
 1331-48-345     2533.0000000        2526.3278809        6.6721191406    
 1331-56-17      2532.0000000        2513.6352539        18.364746094    
 1331-61-54      2528.0000000        2506.4194336        21.580566406    
 1331-66-32      2513.0000000        2494.3737793        18.626220703    
 1331-71-40      2500.0000000        2488.0993652        11.900634766    
 1276-12-99      2565.0000000        2601.7731934       -36.773193359    
 1276-17-90      2570.0000000        2601.2172852       -31.217285156    
 1771-33-65      2644.0000000        2641.3535156        2.6464843750    
 1880-42-356     2637.0000000        2639.3041992       -2.3041992188    
 1880-48-335     2636.0000000        2686.1364746       -50.136474609    
 1880-61-60      2632.0000000        2651.8676758       -19.867675781    
 1880-66-25      2633.0000000        2642.6694336       -9.6694335938    
 1735-34-152     2644.0000000        2640.7202148        3.2797851562    
 1840-16-362     2630.0000000        2619.3510742        10.648925781    
 1794-3-36       2640.0000000        2642.7866211       -2.7866210938    
 1794-16-362     2640.0000000        2637.8925781        2.1074218750    
 1794-27-12      2642.0000000        2642.3571777      -0.35717773438    
 1794-71-39      2640.0000000        2642.6113281       -2.6113281250    
 1794-71-365     2635.0000000        2644.7075195       -9.7075195312    
 1796-16-362     2635.0000000        2622.5144043        12.485595703    
 1806-55-348     2639.0000000        2659.7780762       -20.778076172    
 1806-60-364     2635.0000000        2639.9592285       -4.9592285156    
 1806-66-1       2629.0000000        2632.0361328       -3.0361328125    
 1806-71-39      2638.0000000        2634.9533691        3.0466308594    
 1806-71-365     2635.0000000        2637.0761719       -2.0761718750    
 1788-55-348     2637.0000000        2657.5402832       -20.540283203    
 1788-60-364     2632.0000000        2638.5854492       -6.5854492188    
 1788-66-21      2631.0000000        2632.9982910       -1.9982910156    
 1788-71-39      2631.0000000        2638.4797363       -7.4797363281    
 1788-71-365     2633.0000000        2640.8869629       -7.8869628906    
 1782-42-355     2633.0000000        2630.6142578        2.3857421875    
 1782-48-348     2631.0000000        2674.0688477       -43.068847656    
 1782-55-348     2635.0000000        2659.6464844       -24.646484375    
 1782-60-364     2631.0000000        2639.9265137       -8.9265136719    
 1782-66-28      2628.0000000        2632.4992676       -4.4992675781    
 1782-71-39      2628.0000000        2638.6713867       -10.671386719    
 1782-71-365     2631.0000000        2641.0927734       -10.092773438    
 1807-66-28      2633.0000000        2633.1623535      -0.16235351562    
 1807-71-39      2634.0000000        2637.9692383       -3.9692382812    
 1807-71-365     2634.0000000        2640.3386230       -6.3386230469    
 1896-55-348     2594.0000000        2618.8520508       -24.852050781    
 1881-71-39      2601.0000000        2594.7446289        6.2553710938    
 1881-71-365     2589.0000000        2597.5688477       -8.5688476562    
 1841-1-357      2580.0000000        2585.3344727       -5.3344726562    
 1773-34-91      2602.0000000        2595.1176758        6.8823242188    
 1821-48-302     2600.0000000        2644.7502441       -44.750244141    
 1798-16-362     2587.0000000        2606.7385254       -19.738525391    
 1797-48-348     2599.0000000        2649.2375488       -50.237548828    
 1797-55-348     2605.0000000        2641.6337891       -36.633789062    
 1797-60-354     2596.0000000        2622.4753418       -26.475341797    
 1797-66-28      2599.0000000        2611.9636230       -12.963623047    
 1797-71-39      2603.0000000        2613.5434570       -10.543457031    
 1797-71-365     2602.0000000        2615.1081543       -13.108154297    
 1789-42-356     2598.0000000        2614.0388184       -16.038818359    
 1789-55-348     2598.0000000        2641.4890137       -43.489013672    
 1789-60-364     2591.0000000        2622.2648926       -31.264892578    
 1789-66-28      2592.0000000        2611.8476562       -19.847656250    
 1789-71-39      2594.0000000        2613.7160645       -19.716064453    
 1789-71-365     2596.0000000        2615.1401367       -19.140136719    
 1780-66-28      2599.0000000        2611.9636230       -12.963623047    
 1780-71-39      2602.0000000        2613.5434570       -11.543457031    
 1780-71-365     2604.0000000        2615.1081543       -11.108154297    
 1799-42-356     2601.0000000        2600.7231445       0.27685546875    
 1799-48-335     2589.0000000        2631.0517578       -42.051757812    
 1736-34-152     2616.0000000        2602.5866699        13.413330078    
 1613-42-355     2568.0000000        2575.9516602       -7.9516601562    
 1613-48-348     2573.0000000        2578.6645508       -5.6645507812    
 1613-55-348     2537.0000000        2544.8947754       -7.8947753906    
 1613-61-41      2504.0000000        2523.6430664       -19.643066406    
 1613-66-12      2480.0000000        2507.5371094       -27.537109375    
 1613-71-22      2473.0000000        2513.6210938       -40.621093750    
 1613-71-365     2471.0000000        2512.2443848       -41.244384766    
 1606-55-348     2541.0000000        2553.6774902       -12.677490234    
 1606-61-41      2508.0000000        2532.2890625       -24.289062500    
 1606-66-12      2483.0000000        2517.2414551       -34.241455078    
 1606-71-22      2477.0000000        2524.7819824       -47.781982422    
 1606-71-365     2475.0000000        2523.1682129       -48.168212891    
 1620-2-90       2690.0000000        2620.6687012        69.331298828    
 1620-12-324     2672.0000000        2620.1464844        51.853515625    
 1620-16-362     2671.0000000        2619.5190430        51.480957031    
 1705-48-335     2651.0000000        2708.1279297       -57.127929688    
 1705-56-16      2668.0000000        2693.0798340       -25.079833984    
 1705-61-60      2643.0000000        2672.2290039       -29.229003906    
 1705-66-25      2663.0000000        2660.9096680        2.0903320312    
 1530-48-335     2610.0000000        2662.3547363       -52.354736328    
 1530-56-16      2698.0000000        2654.3537598        43.646240234    
 1530-61-60      2732.0000000        2646.2011719        85.798828125    
 1434-37-27      2699.0000000        2640.5065918        58.493408203    
 1434-42-356     2704.0000000        2636.4504395        67.549560547    
 1434-56-17      2711.0000000        2619.5688477        91.431152344    
 1434-60-321     2712.0000000        2611.5344238        100.46557617    
 1434-65-298     2716.0000000        2603.1611328        112.83886719    
 1434-71-365     2715.0000000        2595.4426270        119.55737305    
 1384-48-335     2782.0000000        2759.5795898        22.420410156    
 1344-48-348     2732.0000000        2715.3576660        16.642333984    
 1344-55-348     2741.0000000        2712.0122070        28.987792969    
 1344-61-41      2745.0000000        2710.3122559        34.687744141    
 1344-66-5       2740.0000000        2708.7956543        31.204345703    
 1344-71-356     2734.0000000        2705.6711426        28.328857422    
 1354-2-93       2721.0000000        2685.6879883        35.312011719    
 1354-7-52       2719.0000000        2685.6455078        33.354492188    
 1354-12-102     2718.0000000        2685.4589844        32.541015625    
 1354-17-71      2715.0000000        2685.1213379        29.878662109    
 1354-22-32      2708.0000000        2684.5810547        23.418945312    
 1354-32-90      2708.0000000        2684.6416016        23.358398438    
 1354-38-60      2700.0000000        2684.5808105        15.419189453    
 1358-32-90      2708.0000000        2673.9875488        34.012451172    
 1358-48-336     2704.0000000        2668.1606445        35.839355469    
 846-17-5        2368.0000000        2370.6552734       -2.6552734375    
 846-22-33       2362.0000000        2359.0207520        2.9792480469    
 846-48-348      2367.0000000        2361.8652344        5.1347656250    
 846-61-25       2372.0000000        2359.4948730        12.505126953    
 846-65-362      2372.0000000        2355.9702148        16.029785156    
 846-71-365      2376.0000000        2356.6530762        19.346923828    
 829-48-348      2368.0000000        2374.4035645       -6.4035644531    
 829-55-353      2372.0000000        2372.8444824      -0.84448242188    
 829-61-35       2375.0000000        2374.1047363       0.89526367188    
 829-65-362      2373.0000000        2370.7712402        2.2287597656    
 829-71-365      2379.0000000        2371.9990234        7.0009765625    
 839-12-121      2371.0000000        2383.3662109       -12.366210938    
 839-71-365      2370.0000000        2360.8608398        9.1391601562    
 817-1-220       2378.0000000        2393.1516113       -15.151611328    
 817-6-331       2379.0000000        2391.2719727       -12.271972656    
 817-12-8        2379.0000000        2387.8447266       -8.8447265625    
 813-32-87       2359.0000000        2367.6218262       -8.6218261719    
 813-37-33       2360.0000000        2367.6967773       -7.6967773438    
 813-42-350      2369.0000000        2371.1738281       -2.1738281250    
 813-48-348      2377.0000000        2375.3867188        1.6132812500    
 813-56-17       2381.0000000        2373.7287598        7.2712402344    
 813-60-323      2381.0000000        2375.6916504        5.3083496094    
 813-65-301      2379.0000000        2372.0556641        6.9443359375    
 813-71-365      2386.0000000        2373.4389648        12.561035156    
 818-17-5        2377.0000000        2385.8679199       -8.8679199219    
 820-1-108       2362.0000000        2378.0261230       -16.026123047    
 812-17-5        2369.0000000        2379.6196289       -10.619628906    
 812-36-157      2336.0000000        2361.1193848       -25.119384766    
 812-56-17       2373.0000000        2363.1755371        9.8244628906    
 812-61-61       2364.0000000        2364.1457520      -0.14575195312    
 812-66-19       2373.0000000        2361.4077148        11.592285156    
 811-56-19       2372.0000000        2364.0502930        7.9497070312    
 811-66-20       2372.0000000        2362.4833984        9.5166015625    
 796-65-362      2378.0000000        2360.2160645        17.783935547    
 796-71-365      2379.0000000        2359.6960449        19.303955078    
 833-8-18        2360.0000000        2361.0505371       -1.0505371094    
 822-1-63        2365.0000000        2366.6989746       -1.6989746094    
 830-1-365       2364.0000000        2357.2089844        6.7910156250    
 821-56-17       2359.0000000        2337.0332031        21.966796875    
 821-61-61       2360.0000000        2336.8461914        23.153808594    
 845-1-73        2315.0000000        2289.8662109        25.133789062    
 845-7-2         2316.0000000        2289.8779297        26.122070312    
 845-11-272      2315.0000000        2289.1086426        25.891357422    
 845-16-318      2306.0000000        2286.5187988        19.481201172    
 845-22-33       2308.0000000        2281.7299805        26.270019531    
 845-31-351      2303.0000000        2274.9460449        28.053955078    
 845-36-62       2300.0000000        2270.4443359        29.555664062    
 845-42-350      2299.0000000        2263.0014648        35.998535156    
 845-48-348      2301.0000000        2261.5253906        39.474609375    
 845-56-19       2310.0000000        2258.7492676        51.250732422    
 845-60-323      2310.0000000        2256.3686523        53.631347656    
 845-65-301      2309.0000000        2253.4182129        55.581787109    
 845-71-13       2316.0000000        2249.8076172        66.192382812    
 1183-16-315     2059.0000000        2079.4619141       -20.461914062    
 1183-26-354     2042.0000000        2052.0444336       -10.044433594    
 1183-31-362     2037.0000000        2040.9456787       -3.9456787109    
 1183-36-356     2032.0000000        2030.8282471        1.1717529297    
 1183-42-350     2023.0000000        2023.0802002      -8.02001953125E-02
 1183-48-348     2015.0000000        2017.8094482       -2.8094482422    
 1183-66-25      1980.0000000        1982.0228271       -2.0228271484    
 1183-71-365     2002.0000000        1996.8957520        5.1042480469    
 1190-56-23      2001.0000000        2003.5352783       -2.5352783203    
 1190-61-54      1992.0000000        1989.0479736        2.9520263672    
 1190-66-25      1979.0000000        1976.3439941        2.6560058594    
 1186-3-344      2064.0000000        2082.3215332       -18.321533203    
 1186-5-69       2064.0000000        2082.0700684       -18.070068359    
 1186-17-6       2057.0000000        2075.5449219       -18.544921875    
 1185-10-213     2065.0000000        2081.2702637       -16.270263672    
 1178-38-335     2020.0000000        2020.1536865      -0.15368652344    
 1178-42-349     2004.0000000        2012.6322021       -8.6322021484    
 1178-48-349     1996.0000000        2005.4262695       -9.4262695312    
 1178-55-353     1980.0000000        1991.6999512       -11.699951172    
 1178-61-21      1956.0000000        1970.1787109       -14.178710938    
 1178-66-34      1939.0000000        1957.6982422       -18.698242188    
 1178-71-365     1990.0000000        1987.2285156        2.7714843750    
 1182-66-25      1954.0000000        1962.7888184       -8.7888183594    
 1132-12-4       2069.0000000        2090.9511719       -21.951171875    
 1134-1-73       2069.0000000        2090.6091309       -21.609130859    
 1148-17-12      2046.0000000        2079.2060547       -33.206054688    
 1148-21-356     2038.0000000        2064.9790039       -26.979003906    
 1148-27-27      2033.0000000        2053.6523438       -20.652343750    
 1148-31-348     2027.0000000        2044.3492432       -17.349243164    
 1148-37-23      2022.0000000        2033.9216309       -11.921630859    
 1148-42-349     2011.0000000        2029.9355469       -18.935546875    
 1148-48-348     2000.0000000        2022.0601807       -22.060180664    
 1148-55-353     1979.0000000        1999.4866943       -20.486694336    
 1148-61-34      1951.0000000        1971.0716553       -20.071655273    
 1148-66-6       1935.0000000        1962.0654297       -27.065429688    
 1148-71-365     1952.0000000        1972.7650146       -20.765014648    
 1177-35-321     2025.0000000        2024.2692871       0.73071289062    
 1177-42-349     2007.0000000        2015.4412842       -8.4412841797    
 1177-48-348     1997.0000000        2007.2479248       -10.247924805    
 1177-55-353     1979.0000000        1990.5841064       -11.584106445    
 1177-61-21      1949.0000000        1964.5362549       -15.536254883    
 1177-66-34      1937.0000000        1955.8005371       -18.800537109    
 1177-71-50      1949.0000000        1965.3944092       -16.394409180    
 1105-12-4       2060.0000000        2093.8625488       -33.862548828    
 1105-16-333     2053.0000000        2088.1455078       -35.145507812    
 1105-21-356     2044.0000000        2072.1806641       -28.180664062    
 1106-42-349     2018.0000000        2038.9503174       -20.950317383    
 1106-55-353     1984.0000000        2008.9827881       -24.982788086    
 1106-61-13      1958.0000000        1981.9737549       -23.973754883    
 1106-66-6       1939.0000000        1971.1439209       -32.143920898    
 1106-71-365     1953.0000000        1981.9063721       -28.906372070    
 1102-66-6       1941.0000000        1974.7847900       -33.784790039    
 1102-71-365     1950.0000000        1983.2670898       -33.267089844    
 1120-3-152      2054.0000000        2091.6867676       -37.686767578    
 1089-42-349     2026.0000000        2033.8992920       -7.8992919922    
 1089-48-349     2010.0000000        2023.1199951       -13.119995117    
 1089-55-353     1994.0000000        2005.9378662       -11.937866211    
 1089-61-34      1975.0000000        1981.4863281       -6.4863281250    
 1089-66-6       1960.0000000        1972.0804443       -12.080444336    
 1089-71-365     1971.0000000        1984.2916260       -13.291625977    
 1093-66-6       1959.0000000        1972.0476074       -13.047607422    
 1093-71-365     1971.0000000        1984.4320068       -13.432006836    
 1087-48-349     1998.0000000        2025.6461182       -27.646118164    
 1087-61-24      1992.0000000        1989.4493408        2.5506591797    
 1087-71-70      1979.0000000        1986.0704346       -7.0704345703    
 1097-15-1       2056.0000000        2099.2480469       -43.248046875    
 996-26-315      2108.0000000        2101.5107422        6.4892578125    
 996-48-349      2065.0000000        2050.5153809        14.484619141    
 996-55-353      2055.0000000        2037.1912842        17.808715820    
 996-61-11       2037.0000000        2015.6900635        21.309936523    
 996-66-6        2034.0000000        2010.9422607        23.057739258    
 996-71-365      2036.0000000        2016.9555664        19.044433594    
 995-39-335      2084.0000000        2062.4038086        21.596191406    
 995-42-349      2064.0000000        2055.5253906        8.4746093750    
 995-55-353      2044.0000000        2031.0085449        12.991455078    
 995-61-34       2030.0000000        2009.3889160        20.611083984    
 995-66-6        2019.0000000        2000.5181885        18.481811523    
 995-71-365      2033.0000000        2006.7592773        26.240722656    
 1090-12-5       2086.0000000        2109.5141602       -23.514160156    
 1090-17-5       2083.0000000        2106.4829102       -23.482910156    
 969-56-19       2115.0000000        2137.0324707       -22.032470703    
 969-71-365      2107.0000000        2119.6909180       -12.690917969    
 983-42-349      2090.0000000        2083.1418457        6.8581542969    
 983-55-353      2067.0000000        2064.4384766        2.5615234375    
 983-61-34       2057.0000000        2050.7224121        6.2775878906    
 983-66-6        2052.0000000        2041.7886963        10.211303711    
 983-71-365      2058.0000000        2043.9293213        14.070678711    
 982-39-238      2104.0000000        2093.2111816        10.788818359    
 921-42-305      2120.0000000        2097.2167969        22.783203125    
 921-48-349      2116.0000000        2090.6164551        25.383544922    
 921-61-34       2099.0000000        2064.1967773        34.803222656    
 921-65-356      2092.0000000        2055.1484375        36.851562500    
 921-71-365      2090.0000000        2054.8569336        35.143066406    
 924-43-60       2107.0000000        2085.3684082        21.631591797    
 924-48-348      2109.0000000        2080.0705566        28.929443359    
 924-55-353      2097.0000000        2065.0583496        31.941650391    
 924-61-34       2089.0000000        2048.6579590        40.342041016    
 924-66-6        2081.0000000        2037.7987061        43.201293945    
 924-71-365      2078.0000000        2039.6799316        38.320068359    
 909-56-16       2118.0000000        2092.7751465        25.224853516    
 911-34-337      2159.0000000        2134.2646484        24.735351562    
 900-56-19       2180.0000000        2164.3850098        15.614990234    
 900-61-61       2192.0000000        2159.1472168        32.852783203    
 848-56-18       2195.0000000        2183.7124023        11.287597656    
 848-66-28       2195.0000000        2173.2436523        21.756347656    
 826-56-19       2208.0000000        2191.6389160        16.361083984    
 800-61-61       2207.0000000        2192.4973145        14.502685547    
 800-66-28       2194.0000000        2187.4985352        6.5014648438    
 803-33-59       2215.0000000        2216.6835938       -1.6835937500    
 852-2-305       2140.0000000        2153.2819824       -13.281982422    
 1249-56-27      2347.0000000        2314.0266113        32.973388672    
 1249-66-13      2266.0000000        2248.2043457        17.795654297    
 1249-71-365     2273.0000000        2236.2500000        36.750000000    
 1235-22-32      2376.0000000        2379.1748047       -3.1748046875    
 1235-42-362     2298.0000000        2332.7770996       -34.777099609    
 1235-48-357     2338.0000000        2347.6074219       -9.6074218750    
 1235-56-32      2326.0000000        2321.0263672        4.9736328125    
 1238-48-320     2316.0000000        2347.6591797       -31.659179688    
 1238-56-10      2288.0000000        2322.2766113       -34.276611328    
 1238-66-10      2251.0000000        2256.8330078       -5.8330078125    
 1238-71-41      2262.0000000        2242.1015625        19.898437500    
 1238-71-365     2267.0000000        2243.0742188        23.925781250    
 1225-1-365      2430.0000000        2409.5734863        20.426513672    
 1200-56-30      2268.0000000        2341.6279297       -73.627929688    
 1200-66-10      2231.0000000        2282.7023926       -51.702392578    
 1200-71-40      2241.0000000        2269.9414062       -28.941406250    
 1198-71-48      2398.0000000        2274.1479492        123.85205078    
 1262-48-320     2313.0000000        2342.0471191       -29.047119141    
 1262-56-10      2285.0000000        2314.3281250       -29.328125000    
 1262-60-362     2250.0000000        2259.4602051       -9.4602050781    
 1262-66-10      2246.0000000        2243.6354980        2.3645019531    
 1262-71-41      2257.0000000        2227.2397461        29.760253906    
 1263-48-320     2313.0000000        2341.5102539       -28.510253906    
 1263-56-10      2284.0000000        2312.3449707       -28.344970703    
 1263-60-362     2250.0000000        2253.7539062       -3.7539062500    
 1263-66-10      2246.0000000        2239.1264648        6.8735351562    
 1263-71-60      2257.0000000        2227.4030762        29.596923828    
 1263-71-365     2262.0000000        2229.6042480        32.395751953    
 1239-17-44      2388.0000000        2391.2465820       -3.2465820312    
 1239-22-32      2374.0000000        2375.7814941       -1.7814941406    
 1239-43-5       2298.0000000        2331.5395508       -33.539550781    
 1239-48-364     2319.0000000        2346.3093262       -27.309326172    
 1239-56-41      2290.0000000        2319.3879395       -29.387939453    
 1239-60-362     2257.0000000        2269.5493164       -12.549316406    
 1239-66-10      2254.0000000        2253.6103516       0.38964843750    
 1239-71-365     2270.0000000        2244.2521973        25.747802734    
 1232-48-321     2316.0000000        2349.9414062       -33.941406250    
 1232-56-27      2288.0000000        2325.3837891       -37.383789062    
 1232-60-361     2254.0000000        2278.3041992       -24.304199219    
 1232-66-10      2251.0000000        2262.2453613       -11.245361328    
 1232-71-41      2262.0000000        2250.8454590        11.154541016    
 1241-56-27      2287.0000000        2319.0349121       -32.034912109    
 1241-66-10      2250.0000000        2251.6950684       -1.6950683594    
 1241-71-40      2260.0000000        2240.0187988        19.981201172    
 1270-56-30      2282.0000000        2314.7954102       -32.795410156    
 1270-71-42      2255.0000000        2237.5700684        17.429931641    
 1273-43-1       2285.0000000        2324.9020996       -39.902099609    
 1273-48-364     2306.0000000        2340.8896484       -34.889648438    
 1273-56-32      2276.0000000        2317.3120117       -41.312011719    
 1273-60-362     2242.0000000        2268.2290039       -26.229003906    
 1273-65-348     2239.0000000        2253.1086426       -14.108642578    
 1273-71-365     2255.0000000        2245.5800781        9.4199218750    
 1256-1-365      2388.0000000        2394.3146973       -6.3146972656    
 1234-43-5       2295.0000000        2329.0700684       -34.070068359    
 1234-48-364     2316.0000000        2344.8835449       -28.883544922    
 1234-56-32      2288.0000000        2319.2229004       -31.222900391    
 1234-60-362     2254.0000000        2269.4348145       -15.434814453    
 1233-56-32      2288.0000000        2325.9804688       -37.980468750    
 1233-65-337     2255.0000000        2264.4091797       -9.4091796875    
 1233-71-365     2272.0000000        2254.3369141        17.663085938    
 1227-17-44      2392.0000000        2398.6655273       -6.6655273438    
 1227-22-58      2377.0000000        2383.4799805       -6.4799804688    
 1227-31-335     2354.0000000        2367.5134277       -13.513427734    
 1227-43-5       2301.0000000        2338.7270508       -37.727050781    
 1227-48-364     2322.0000000        2356.3149414       -34.314941406    
 1227-56-32      2295.0000000        2334.0986328       -39.098632812    
 1227-61-60      2261.0000000        2291.0705566       -30.070556641    
 1227-71-365     2273.0000000        2264.3242188        8.6757812500    
 1208-1-364      2408.0000000        2410.1166992       -2.1166992188    
 1208-6-360      2405.0000000        2408.5351562       -3.5351562500    
 1208-11-360     2387.0000000        2401.1540527       -14.154052734    
 1208-16-357     2389.0000000        2403.8093262       -14.809326172    
 1208-21-361     2372.0000000        2388.2478027       -16.247802734    
 1208-26-354     2402.0000000        2377.6201172        24.379882812    
 1208-31-362     2395.0000000        2370.4619141        24.538085938    
 1219-22-33      2371.0000000        2384.9819336       -13.981933594    
 1219-33-165     2333.0000000        2360.7714844       -27.771484375    
 1219-42-362     2295.0000000        2340.0205078       -45.020507812    
 1219-48-357     2316.0000000        2355.6198730       -39.619873047    
 1219-56-32      2290.0000000        2332.4904785       -42.490478516    
 1219-60-362     2256.0000000        2288.4824219       -32.482421875    
 1219-66-10      2253.0000000        2271.6328125       -18.632812500    
 1219-71-365     2269.0000000        2260.2297363        8.7702636719    
 1217-56-27      2292.0000000        2334.3776855       -42.377685547    
 1217-71-365     2271.0000000        2262.3222656        8.6777343750    
 1205-33-160     2338.0000000        2367.4645996       -29.464599609    
 1205-42-362     2300.0000000        2346.2802734       -46.280273438    
 1205-48-357     2322.0000000        2361.8562012       -39.856201172    
 1205-56-34      2298.0000000        2340.1611328       -42.161132812    
 1205-66-10      2296.0000000        2281.6308594        14.369140625    
 1231-7-66       2392.0000000        2400.6311035       -8.6311035156    
 1231-12-57      2377.0000000        2392.1010742       -15.101074219    
 1231-17-4       2375.0000000        2397.1101074       -22.110107422    
 1231-22-32      2364.0000000        2380.0959473       -16.095947266    
 1231-27-10      2353.0000000        2371.4309082       -18.430908203    
 1231-31-335     2341.0000000        2364.3701172       -23.370117188    
 1231-37-335     2333.0000000        2334.7868652       -1.7868652344    
 1179-6-115      2415.0000000        2416.4636230       -1.4636230469    
 1168-17-47      2403.0000000        2411.9577637       -8.9577636719    
 1168-22-32      2392.0000000        2399.9040527       -7.9040527344    
 1168-36-335     2315.0000000        2357.7819824       -42.781982422    
 1114-1-365      2440.0000000        2437.4340820        2.5659179688    
 1122-17-47      2418.0000000        2422.3588867       -4.3588867188    
 1122-22-32      2391.0000000        2411.6755371       -20.675537109    
 1122-42-356     2298.0000000        2370.4914551       -72.491455078    
 1122-48-335     2336.0000000        2387.1604004       -51.160400391    
 1140-7-66       2423.0000000        2427.4094238       -4.4094238281    
 1140-12-57      2419.0000000        2418.6931152       0.30688476562    
 1140-17-4       2406.0000000        2419.2133789       -13.213378906    
 1140-22-32      2395.0000000        2409.0356445       -14.035644531    
 1140-31-335     2361.0000000        2388.9289551       -27.928955078    
 1140-36-345     2332.0000000        2368.4951172       -36.495117188    
 1193-48-321     2325.0000000        2367.1821289       -42.182128906    
 1193-56-30      2300.0000000        2346.1818848       -46.181884766    
 1176-48-320     2326.0000000        2370.6887207       -44.688720703    
 1176-56-10      2302.0000000        2350.5839844       -48.583984375    
 1176-60-361     2271.0000000        2312.8840332       -41.884033203    
 1176-66-10      2265.0000000        2294.8830566       -29.883056641    
 1176-71-40      2276.0000000        2279.2707520       -3.2707519531    
 1176-71-365     2282.0000000        2278.9741211        3.0258789062    
 1159-66-10      2352.0000000        2302.9584961        49.041503906    
 1159-71-62      2331.0000000        2288.8666992        42.133300781    
 1159-71-365     2326.0000000        2288.6542969        37.345703125    
 1160-71-62      2408.0000000        2292.1318359        115.86816406    
 1160-71-365     2409.0000000        2291.8063965        117.19360352    
 1147-42-356     2384.0000000        2366.7128906        17.287109375    
 1147-48-335     2391.0000000        2380.1958008        10.804199219    
 1147-56-17      2388.0000000        2362.2624512        25.737548828    
 1141-1-274      2417.0000000        2429.4343262       -12.434326172    
 1141-7-176      2412.0000000        2428.1809082       -16.180908203    
 1141-11-311     2405.0000000        2422.3989258       -17.398925781    
 1141-17-44      2406.0000000        2421.4206543       -15.420654297    
 1141-22-30      2388.0000000        2410.4008789       -22.400878906    
 1141-26-349     2370.0000000        2397.3149414       -27.314941406    
 1141-31-362     2359.0000000        2389.2949219       -30.294921875    
 1141-36-356     2320.0000000        2367.5898438       -47.589843750    
 1141-42-362     2302.0000000        2367.7736816       -65.773681641    
 1141-48-364     2330.0000000        2383.1958008       -53.195800781    
 1141-56-32      2308.0000000        2365.6979980       -57.697998047    
 1141-60-362     2280.0000000        2334.6667480       -54.666748047    
 1141-66-1       2273.0000000        2317.5644531       -44.564453125    
 1141-71-365     2289.0000000        2307.5524902       -18.552490234    
 1121-17-44      2430.0000000        2427.8564453        2.1435546875    
 1121-22-33      2397.0000000        2418.7282715       -21.728271484    
 1121-31-335     2362.0000000        2397.4482422       -35.448242188    
 1121-35-345     2332.0000000        2379.9692383       -47.969238281    
 1121-42-356     2319.0000000        2375.0219727       -56.021972656    
 1121-48-355     2339.0000000        2387.7521973       -48.752197266    
 1121-56-32      2335.0000000        2370.6416016       -35.641601562    
 1121-60-362     2321.0000000        2341.1491699       -20.149169922    
 1121-65-348     2330.0000000        2323.9274902        6.0725097656    
 1121-71-365     2333.0000000        2313.0317383        19.968261719    
 1192-71-55      2429.0000000        2279.4443359        149.55566406    
 1157-48-322     2327.0000000        2375.8645020       -48.864501953    
 1157-56-10      2305.0000000        2356.4577637       -51.457763672    
 1157-60-361     2275.0000000        2322.7690430       -47.769042969    
 1157-66-10      2269.0000000        2304.6625977       -35.662597656    
 1157-71-40      2280.0000000        2290.8198242       -10.819824219    
 1180-48-323     2405.0000000        2369.8442383        35.155761719    
 1167-71-365     2406.0000000        2278.8093262        127.19067383    
 1170-71-365     2406.0000000        2280.6154785        125.38452148    
 1172-71-365     2406.0000000        2281.8745117        124.12548828    
 1163-71-365     2407.0000000        2277.8894043        129.11059570    
 1155-71-365     2404.0000000        2284.2802734        119.71972656    
 1144-71-365     2418.0000000        2301.6989746        116.30102539    
 1080-22-33      2448.0000000        2438.0749512        9.9250488281    
 1080-31-335     2422.0000000        2412.3771973        9.6228027344    
 1080-42-356     2428.0000000        2389.8737793        38.126220703    
 1080-48-355     2431.0000000        2399.9733887        31.026611328    
 1085-42-356     2323.0000000        2387.6315918       -64.631591797    
 1085-48-355     2409.0000000        2397.0366211        11.963378906    
 1091-71-56      2424.0000000        2327.8039551        96.196044922    
 1048-71-365     2439.0000000        2342.7927246        96.207275391    
 1012-71-365     2441.0000000        2354.7646484        86.235351562    
 1039-48-322     2338.0000000        2408.9848633       -70.984863281    
 1039-56-30      2315.0000000        2393.5056152       -78.505615234    
 1039-60-362     2288.0000000        2374.7011719       -86.701171875    
 1039-66-13      2281.0000000        2359.4274902       -78.427490234    
 1039-71-365     2299.0000000        2351.0500488       -52.050048828    
 1040-71-365     2448.0000000        2351.5065918        96.493408203    
 1075-17-44      2442.0000000        2440.7331543        1.2668457031    
 1075-22-33      2435.0000000        2432.3210449        2.6789550781    
 1075-31-335     2413.0000000        2409.1682129        3.8317871094    
 1053-42-357     2358.0000000        2390.8930664       -32.893066406    
 1056-48-335     2338.0000000        2402.9038086       -64.903808594    
 1056-56-17      2317.0000000        2385.9372559       -68.937255859    
 1016-17-32      2422.0000000        2449.2685547       -27.268554688    
 1016-31-335     2366.0000000        2416.9389648       -50.938964844    
 1016-37-319     2356.0000000        2394.8881836       -38.888183594    
 1011-22-33      2391.0000000        2444.7492676       -53.749267578    
 1015-42-356     2311.0000000        2401.0842285       -90.084228516    
 1015-48-337     2332.0000000        2411.5339355       -79.533935547    
 1015-56-19      2335.0000000        2395.9250488       -60.925048828    
 1015-61-53      2295.0000000        2373.0058594       -78.005859375    
 1015-66-32      2286.0000000        2357.1782227       -71.178222656    
 1094-1-277      2430.0000000        2438.6923828       -8.6923828125    
 1094-6-340      2427.0000000        2438.2082520       -11.208251953    
 1094-10-27      2424.0000000        2432.8156738       -8.8156738281    
 1077-7-176      2432.0000000        2437.7138672       -5.7138671875    
 1063-17-46      2415.0000000        2433.7929688       -18.792968750    
 1063-22-33      2394.0000000        2427.7978516       -33.797851562    
 1034-36-335     2322.0000000        2397.7448730       -75.744873047    
 1034-42-362     2309.0000000        2395.2827148       -86.282714844    
 1034-48-357     2346.0000000        2406.8081055       -60.808105469    
 1034-56-34      2323.0000000        2394.2424316       -71.242431641    
 1034-66-1       2293.0000000        2357.2580566       -64.258056641    
 1034-71-54      2305.0000000        2349.0454102       -44.045410156    
 1034-71-365     2310.0000000        2348.1291504       -38.129150391    
 997-17-46       2437.0000000        2442.7478027       -5.7478027344    
 997-22-33       2420.0000000        2438.6267090       -18.626708984    
 1008-1-121      2454.0000000        2458.0043945       -4.0043945312    
 1049-17-46      2418.0000000        2436.2407227       -18.240722656    
 1049-31-335     2358.0000000        2409.0244141       -51.024414062    
 1049-36-335     2342.0000000        2392.1506348       -50.150634766    
 1049-42-356     2307.0000000        2391.0178223       -84.017822266    
 1049-48-334     2341.0000000        2403.6765137       -62.676513672    
 1049-56-18      2319.0000000        2390.0270996       -71.027099609    
 1049-61-53      2292.0000000        2367.4587402       -75.458740234    
 1007-11-194     2432.0000000        2448.9355469       -16.935546875    
 1007-17-4       2433.0000000        2446.3681641       -13.368164062    
 1007-22-32      2411.0000000        2439.7370605       -28.737060547    
 1007-27-10      2401.0000000        2424.4550781       -23.455078125    
 1007-31-335     2370.0000000        2417.7883301       -47.788330078    
 1007-37-319     2361.0000000        2396.1630859       -35.163085938    
 1006-1-364      2442.0000000        2458.4362793       -16.436279297    
 1006-7-66       2438.0000000        2458.3439941       -20.343994141    
 1006-11-258     2368.0000000        2450.8725586       -82.872558594    
 1006-17-44      2426.0000000        2449.3510742       -23.351074219    
 1065-42-356     2413.0000000        2391.9313965        21.068603516    
 1065-48-334     2415.0000000        2401.7736816        13.226318359    
 1065-56-18      2414.0000000        2392.7231445        21.276855469    
 1065-66-24      2413.0000000        2358.9704590        54.029541016    
 991-22-34       2435.0000000        2441.1503906       -6.1503906250    
 991-26-279      2422.0000000        2429.0859375       -7.0859375000    
 991-31-335      2404.0000000        2428.6394043       -24.639404297    
 991-37-319      2396.0000000        2410.2004395       -14.200439453    
 991-42-356      2390.0000000        2404.7939453       -14.793945312    
 991-48-334      2394.0000000        2412.1782227       -18.178222656    
 991-66-27       2392.0000000        2371.7341309        20.265869141    
 976-1-365       2456.0000000        2464.1811523       -8.1811523438    
 963-1-365       2458.0000000        2467.2607422       -9.2607421875    
 964-1-365       2458.0000000        2467.1582031       -9.1582031250    
 960-1-365       2471.0000000        2468.3071289        2.6928710938    
 953-1-364       2473.0000000        2472.1950684       0.80493164062    
 950-17-4        2472.0000000        2464.3503418        7.6496582031    
 936-1-365       2461.0000000        2479.2978516       -18.297851562    
 932-1-365       2504.0000000        2482.0715332        21.928466797    
 944-42-356      2356.0000000        2415.9816895       -59.981689453    
 944-48-341      2376.0000000        2423.7170410       -47.717041016    
 926-1-365       2487.0000000        2483.8959961        3.1040039062    
 929-1-364       2484.0000000        2483.4572754       0.54272460938    
 929-6-340       2482.0000000        2481.0288086       0.97119140625    
 929-11-333      2478.0000000        2475.2531738        2.7468261719    
 929-16-301      2474.0000000        2472.9577637        1.0422363281    
 974-42-362      2301.0000000        2408.2277832       -107.22778320    
 974-48-336      2335.0000000        2416.9521484       -81.952148438    
 974-56-18       2322.0000000        2401.6135254       -79.613525391    
 957-1-365       2481.0000000        2474.2875977        6.7124023438    
 942-1-365       2544.0000000        2480.9208984        63.079101562    
 937-1-364       2473.0000000        2482.2612305       -9.2612304688    
 943-22-32       2442.0000000        2466.0583496       -24.058349609    
 943-26-279      2421.0000000        2453.7272949       -32.727294922    
 943-31-335      2403.0000000        2441.5925293       -38.592529297    
 943-36-335      2365.0000000        2421.3483887       -56.348388672    
 943-42-351      2351.0000000        2418.8540039       -67.854003906    
 943-48-336      2355.0000000        2426.5458984       -71.545898438    
 862-22-33       2507.0000000        2495.4790039        11.520996094    
 862-27-59       2490.0000000        2477.5166016        12.483398438    
 862-31-335      2453.0000000        2465.0732422       -12.073242188    
 862-36-336      2434.0000000        2448.3352051       -14.335205078    
 862-42-351      2426.0000000        2443.4941406       -17.494140625    
 862-48-337      2442.0000000        2443.8972168       -1.8972167969    
 901-1-364       2513.0000000        2495.0437012        17.956298828    
 907-37-342      2408.0000000        2426.1823730       -18.182373047    
 903-1-365       2503.0000000        2493.4345703        9.5654296875    
 895-42-356      2392.0000000        2427.8732910       -35.873291016    
 895-48-337      2386.0000000        2432.7170410       -46.717041016    
 898-1-32        2492.0000000        2491.7658691       0.23413085938    
 898-17-4        2491.0000000        2484.7412109        6.2587890625    
 889-22-32       2489.0000000        2479.0388184        9.9611816406    
 889-26-279      2467.0000000        2466.6726074       0.32739257812    
 889-31-335      2455.0000000        2452.8088379        2.1911621094    
 889-36-336      2425.0000000        2432.1638184       -7.1638183594    
 889-42-356      2380.0000000        2427.5949707       -47.594970703    
 889-48-337      2404.0000000        2431.9326172       -27.932617188    
 889-61-54       2384.0000000        2392.0305176       -8.0305175781    
 883-42-356      2375.0000000        2431.0861816       -56.086181641    
 621-37-343      2434.0000000        2440.6877441       -6.6877441406    
 934-33-21       2430.0000000        2442.1127930       -12.112792969    
 863-1-365       2520.0000000        2510.4824219        9.5175781250    
 914-48-336      2386.0000000        2427.2778320       -41.277832031    
 914-61-55       2363.0000000        2388.1240234       -25.124023438    
 902-17-47       2483.0000000        2481.2810059        1.7189941406    
 902-22-32       2476.0000000        2473.1376953        2.8623046875    
 902-26-278      2456.0000000        2460.2233887       -4.2233886719    
 902-36-336      2408.0000000        2427.1955566       -19.195556641    
 902-42-356      2375.0000000        2422.2407227       -47.240722656    
 902-48-337      2392.0000000        2428.0212402       -36.021240234    
 902-61-54       2366.0000000        2388.2124023       -22.212402344    
 916-1-365       2494.0000000        2486.1186523        7.8813476562    
 916-7-298       2486.0000000        2484.2587891        1.7412109375    
 916-11-258      2482.0000000        2479.0222168        2.9777832031    
 916-17-32       2483.0000000        2476.8342285        6.1657714844    
 916-22-34       2477.0000000        2469.6369629        7.3630371094    
 916-26-278      2448.0000000        2456.9428711       -8.9428710938    
 916-36-336      2401.0000000        2426.7360840       -25.736083984    
 916-42-362      2381.0000000        2421.3063965       -40.306396484    
 916-48-335      2388.0000000        2427.3894043       -39.389404297    
 916-61-55       2363.0000000        2389.8000488       -26.800048828    
 917-42-362      2386.0000000        2421.3576660       -35.357666016    
 917-48-335      2398.0000000        2427.4155273       -29.415527344    
 905-1-365       2494.0000000        2488.9421387        5.0578613281    
 910-42-362      2406.0000000        2424.3435059       -18.343505859    
 897-1-365       2511.0000000        2491.3276367        19.672363281    
 864-1-364       2511.0000000        2505.4375000        5.5625000000    
 865-42-356      2388.0000000        2436.7922363       -48.792236328    
 865-48-335      2411.0000000        2439.6679688       -28.667968750    
 854-1-365       2516.0000000        2509.0146484        6.9853515625    
 856-1-365       2515.0000000        2508.3825684        6.6174316406    
 851-22-34       2501.0000000        2495.5178223        5.4821777344    
 851-26-278      2480.0000000        2485.4326172       -5.4326171875    
 851-37-342      2445.0000000        2450.4499512       -5.4499511719    
 851-48-337      2426.0000000        2448.5866699       -22.586669922    
 851-61-54       2417.0000000        2414.3264160        2.6735839844    
 843-1-365       2514.0000000        2515.0175781       -1.0175781250    
 841-1-365       2523.0000000        2517.9140625        5.0859375000    
 836-17-4        2508.0000000        2513.4667969       -5.4667968750    
 823-1-365       2528.0000000        2527.1479492       0.85205078125    
 859-48-337      2415.0000000        2442.1489258       -27.148925781    
 842-37-342      2445.0000000        2453.9101562       -8.9101562500    
 842-42-356      2428.0000000        2450.8603516       -22.860351562    
 842-48-337      2429.0000000        2452.2551270       -23.255126953    
 842-61-54       2421.0000000        2416.6213379        4.3786621094    
 831-42-351      2438.0000000        2460.1667480       -22.166748047    
 831-48-337      2434.0000000        2460.7150879       -26.715087891    
 828-42-351      2440.0000000        2461.4060059       -21.406005859    
 828-48-337      2437.0000000        2461.8989258       -24.898925781    
 819-1-365       2533.0000000        2532.0239258       0.97607421875    
 1254-71-42      2339.0000000        2344.0368652       -5.0368652344    
 1228-37-95      2395.0000000        2421.5974121       -26.597412109    
 1228-42-356     2381.0000000        2412.5854492       -31.585449219    
 1228-56-20      2381.0000000        2388.4692383       -7.4692382812    
 1228-66-25      2353.0000000        2362.6984863       -9.6984863281    
 1228-71-40      2348.0000000        2355.1164551       -7.1164550781    
 1199-48-344     2388.0000000        2413.1708984       -25.170898438    
 1199-56-20      2389.0000000        2400.5236816       -11.523681641    
 1199-61-60      2375.0000000        2385.3850098       -10.385009766    
 1199-66-25      2369.0000000        2374.9912109       -5.9912109375    
 1199-71-40      2361.0000000        2366.2368164       -5.2368164062    
 1243-42-362     2314.0000000        2372.9042969       -58.904296875    
 1243-56-18      2313.0000000        2339.6884766       -26.688476562    
 1243-61-60      2294.0000000        2320.5532227       -26.553222656    
 1243-66-27      2283.0000000        2304.1801758       -21.180175781    
 1243-71-56      2280.0000000        2302.7216797       -22.721679688    
 1218-71-365     2422.0000000        2280.6005859        141.39941406    
 1204-42-356     2298.0000000        2352.9414062       -54.941406250    
 1204-56-17      2295.0000000        2344.2465820       -49.246582031    
 1204-66-26      2264.0000000        2299.8200684       -35.820068359    
 1204-71-365     2283.0000000        2286.9321289       -3.9321289062    
 1131-71-365     2433.0000000        2325.0783691        107.92163086    
 1112-48-320     2331.0000000        2396.4335938       -65.433593750    
 1112-56-25      2321.0000000        2382.5688477       -61.568847656    
 1112-60-362     2302.0000000        2366.3093262       -64.309326172    
 1112-65-348     2295.0000000        2350.4570312       -55.457031250    
 1112-71-60      2306.0000000        2339.8669434       -33.866943359    
 1112-71-365     2310.0000000        2338.6496582       -28.649658203    
 1118-71-365     2460.0000000        2341.5764160        118.42358398    
 1111-71-362     2461.0000000        2352.4777832        108.52221680    
 1169-71-362     2447.0000000        2328.3757324        118.62426758    
 1100-48-348     2500.0000000        2445.8815918        54.118408203    
 1100-56-25      2499.0000000        2433.8078613        65.192138672    
 1100-61-56      2487.0000000        2417.8928223        69.107177734    
 1100-66-42      2474.0000000        2399.4328613        74.567138672    
 1100-71-365     2471.0000000        2391.3066406        79.693359375    
 1051-42-355     2511.0000000        2471.4509277        39.549072266    
 1051-48-365     2505.0000000        2461.3930664        43.606933594    
 1051-56-25      2501.0000000        2450.1726074        50.827392578    
 1051-61-42      2495.0000000        2433.1396484        61.860351562    
 1051-66-53      2487.0000000        2412.0600586        74.939941406    
 1051-71-365     2480.0000000        2406.3288574        73.671142578    
 1036-12-95      2539.0000000        2526.0429688        12.957031250    
 1036-26-349     2538.0000000        2510.7624512        27.237548828    
 1036-48-348     2513.0000000        2469.9343262        43.065673828    
 1036-56-25      2511.0000000        2458.9257812        52.074218750    
 1036-61-42      2505.0000000        2444.2822266        60.717773438    
 1036-66-53      2496.0000000        2425.8815918        70.118408203    
 1036-71-365     2487.0000000        2414.8586426        72.141357422    
 1025-56-27      2508.0000000        2450.1562500        57.843750000    
 1025-66-59      2497.0000000        2422.1149902        74.885009766    
 1054-66-59      2488.0000000        2402.8010254        85.198974609    
 1055-65-348     2483.0000000        2397.8100586        85.189941406    
 1001-56-18      2499.0000000        2439.0439453        59.956054688    
 1001-65-348     2495.0000000        2415.9184570        79.081542969    
 1027-56-18      2499.0000000        2437.8862305        61.113769531    
 1086-71-55      2451.0000000        2358.4716797        92.528320312    
 1099-26-349     2377.0000000        2423.0830078       -46.083007812    
 1099-43-4       2312.0000000        2388.3637695       -76.363769531    
 1099-48-362     2335.0000000        2394.6777344       -59.677734375    
 1099-56-9       2312.0000000        2379.6508789       -67.650878906    
 1042-48-355     2340.0000000        2409.4033203       -69.403320312    
 1042-56-25      2320.0000000        2394.9125977       -74.912597656    
 1042-60-362     2294.0000000        2379.0900879       -85.090087891    
 1042-65-348     2287.0000000        2364.3400879       -77.340087891    
 1042-71-365     2304.0000000        2355.0827637       -51.082763672    
 952-56-33       2509.0000000        2452.3500977        56.649902344    
 952-65-348      2501.0000000        2430.6894531        70.310546875    
 949-56-27       2530.0000000        2487.5634766        42.436523438    
 993-56-27       2504.0000000        2448.8596191        55.140380859    
 956-56-29       2515.0000000        2462.9438477        52.056152344    
 886-71-355      2505.0000000        2481.1528320        23.847167969    
 886-71-362      2497.0000000        2481.1140137        15.885986328    
 913-42-355      2532.0000000        2528.9636230        3.0363769531    
 913-48-334      2529.0000000        2520.0563965        8.9436035156    
 913-56-18       2525.0000000        2509.0329590        15.967041016    
 913-61-53       2521.0000000        2497.8234863        23.176513672    
 913-66-32       2513.0000000        2483.7890625        29.210937500    
 874-71-61       2503.0000000        2472.1293945        30.870605469    
 933-48-338      2507.0000000        2464.3613281        42.638671875    
 933-56-18       2504.0000000        2451.7675781        52.232421875    
 933-61-53       2501.0000000        2442.1904297        58.809570312    
 933-66-32       2498.0000000        2431.1684570        66.831542969    
 887-26-285      2524.0000000        2518.3229980        5.6770019531    
 887-31-335      2519.0000000        2506.4277344        12.572265625    
 887-37-1        2505.0000000        2495.2055664        9.7944335938    
 887-42-357      2478.0000000        2483.2021484       -5.2021484375    
 877-42-352      2515.0000000        2486.9697266        28.030273438    
 877-48-338      2518.0000000        2477.1770020        40.822998047    
 877-61-53       2510.0000000        2454.8173828        55.182617188    
 877-66-32       2509.0000000        2445.0974121        63.902587891    
 919-42-357      2478.0000000        2448.4255371        29.574462891    
 920-42-357      2473.0000000        2442.9677734        30.032226562    
 888-42-357      2467.0000000        2454.1467285        12.853271484    
 892-17-48       2512.0000000        2507.5209961        4.4790039062    
 892-22-37       2508.0000000        2499.2150879        8.7849121094    
 892-26-285      2497.0000000        2482.6098633        14.390136719    
 892-31-335      2484.0000000        2469.9445801        14.055419922    
 892-36-337      2472.0000000        2455.0878906        16.912109375    
 878-36-335      2464.0000000        2445.5681152        18.431884766    
 878-42-359      2467.0000000        2440.8674316        26.132568359    
 878-71-365      2502.0000000        2391.0500488        110.94995117    
 853-22-37       2515.0000000        2501.9990234        13.000976562    
 853-26-336      2491.0000000        2473.5688477        17.431152344    
 853-48-362      2470.0000000        2437.3544922        32.645507812    
 853-56-9        2454.0000000        2424.6933594        29.306640625    
 853-61-47       2458.0000000        2405.8273926        52.172607422    
 853-65-357      2495.0000000        2392.8718262        102.12817383    
 853-71-362      2511.0000000        2392.8317871        118.16821289    
 844-43-4        2467.0000000        2444.5983887        22.401611328    
 844-48-362      2462.0000000        2436.7597656        25.240234375    
 844-56-9        2474.0000000        2426.2395020        47.760498047    
 844-61-47       2465.0000000        2405.6777344        59.322265625    
 844-65-357      2498.0000000        2391.6635742        106.33642578    
 844-71-362      2515.0000000        2393.3500977        121.64990234    
 834-16-364      2533.0000000        2526.4658203        6.5341796875    
 834-26-280      2484.0000000        2481.0568848        2.9431152344    
 834-43-4        2465.0000000        2448.8034668        16.196533203    
 834-56-20       2471.0000000        2430.3178711        40.682128906    
 834-60-306      2458.0000000        2410.5874023        47.412597656    
 834-65-357      2497.0000000        2398.5222168        98.477783203    
 834-71-362      2514.0000000        2399.8269043        114.17309570    
 835-65-357      2500.0000000        2396.9782715        103.02172852    
 835-71-362      2518.0000000        2398.2641602        119.73583984    
 815-1-365       2541.0000000        2541.4309082      -0.43090820312    
 850-17-80       2544.0000000        2544.5156250      -0.51562500000    
 850-22-37       2543.0000000        2539.6396484        3.3603515625    
 850-26-285      2538.0000000        2530.6589355        7.3410644531    
 850-31-335      2532.0000000        2519.0097656        12.990234375    
 850-38-60       2520.0000000        2505.6987305        14.301269531    
 850-42-352      2509.0000000        2496.9675293        12.032470703    
 850-48-338      2512.0000000        2486.3269043        25.673095703    
 850-60-320      2501.0000000        2464.2617188        36.738281250    
 850-65-298      2503.0000000        2455.2917480        47.708251953    
 850-71-365      2504.0000000        2445.6633301        58.336669922    
 1259-66-59      2533.0000000        2542.6281738       -9.6281738281    
 1236-66-59      2562.0000000        2564.2033691       -2.2033691406    
 1260-66-59      2532.0000000        2537.6545410       -5.6545410156    
 1244-66-59      2536.0000000        2543.3276367       -7.3276367188    
 1252-35-23      2516.0000000        2516.1508789      -0.15087890625    
 1267-71-365     2476.0000000        2451.3417969        24.658203125    
 1253-37-90      2465.0000000        2476.3051758       -11.305175781    
 1253-42-355     2463.0000000        2467.3825684       -4.3825683594    
 1253-48-349     2460.0000000        2459.9721680       2.78320312500E-02
 1253-56-11      2455.0000000        2445.5717773        9.4282226562    
 1253-61-56      2448.0000000        2434.5009766        13.499023438    
 1253-66-59      2441.0000000        2424.0732422        16.926757812    
 1253-71-365     2429.0000000        2413.0305176        15.969482422    
 1245-37-90      2438.0000000        2446.9248047       -8.9248046875    
 1245-42-355     2425.0000000        2437.2741699       -12.274169922    
 1245-48-349     2420.0000000        2426.5031738       -6.5031738281    
 1245-55-357     2417.0000000        2413.3825684        3.6174316406    
 1245-61-12      2408.0000000        2399.4372559        8.5627441406    
 1245-66-49      2401.0000000        2390.9177246        10.082275391    
 1245-71-365     2392.0000000        2381.9106445        10.089355469    
 1250-17-86      2461.0000000        2470.7980957       -9.7980957031    
 1250-32-69      2422.0000000        2438.2795410       -16.279541016    
 1250-37-95      2405.0000000        2422.2875977       -17.287597656    
 1250-56-19      2380.0000000        2385.8908691       -5.8908691406    
 1250-61-60      2364.0000000        2371.5073242       -7.5073242188    
 1251-12-296     2472.0000000        2478.3095703       -6.3095703125    
 1251-17-86      2459.0000000        2469.1931152       -10.193115234    
 1251-32-69      2418.0000000        2435.8791504       -17.879150391    
 1251-37-95      2401.0000000        2418.6425781       -17.642578125    
 1251-42-356     2381.0000000        2409.3603516       -28.360351562    
 1251-48-334     2380.0000000        2398.2153320       -18.215332031    
 1251-56-19      2376.0000000        2383.0126953       -7.0126953125    
 1251-60-321     2362.0000000        2369.3549805       -7.3549804688    
 1251-65-298     2356.0000000        2360.4396973       -4.4396972656    
 1251-71-365     2351.0000000        2352.9792480       -1.9792480469    
 1226-48-344     2395.0000000        2417.5773926       -22.577392578    
 1226-56-19      2392.0000000        2402.2092285       -10.209228516    
 1226-61-60      2374.0000000        2386.6213379       -12.621337891    
 1226-66-25      2371.0000000        2378.1750488       -7.1750488281    
 1226-71-42      2363.0000000        2369.9660645       -6.9660644531    
 1195-12-297     2515.0000000        2502.4709473        12.529052734    
 1195-17-60      2511.0000000        2497.2250977        13.774902344    
 1195-32-69      2493.0000000        2471.0219727        21.978027344    
 1195-37-95      2484.0000000        2457.9960938        26.003906250    
 1195-48-344     2469.0000000        2438.7485352        30.251464844    
 1195-56-19      2423.0000000        2425.3449707       -2.3449707031    
 1195-66-25      2438.0000000        2400.2041016        37.795898438    
 1128-70-357     2457.0000000        2406.0654297        50.934570312    
 1128-71-365     2458.0000000        2403.3144531        54.685546875    
 1110-17-78      2537.0000000        2524.8750000        12.125000000    
 1110-32-70      2525.0000000        2506.1828613        18.817138672    
 1110-37-1       2507.0000000        2497.7031250        9.2968750000    
 1137-16-357     2534.0000000        2534.9780273      -0.97802734375    
 1173-66-5       2554.0000000        2571.6579590       -17.657958984    
 1173-71-365     2541.0000000        2565.8090820       -24.809082031    
 1044-16-362     2571.0000000        2585.8220215       -14.822021484    
 1044-32-69      2561.0000000        2578.5187988       -17.518798828    
 1044-37-95      2559.0000000        2575.2321777       -16.232177734    
 1044-42-356     2552.0000000        2570.2148438       -18.214843750    
 1044-48-344     2546.0000000        2564.4428711       -18.442871094    
 1044-56-20      2550.0000000        2556.1396484       -6.1396484375    
 1044-61-60      2536.0000000        2541.9436035       -5.9436035156    
 1044-66-25      2521.0000000        2522.2224121       -1.2224121094    
 1050-71-40      2513.0000000        2507.1057129        5.8942871094    
 1045-31-349     2555.0000000        2552.9309082        2.0690917969    
 1045-37-26      2550.0000000        2547.4191895        2.5808105469    
 1045-42-354     2545.0000000        2539.5356445        5.4643554688    
 1045-48-344     2543.0000000        2532.6838379        10.316162109    
 1045-56-17      2550.0000000        2522.5046387        27.495361328    
 1045-60-320     2531.0000000        2509.7973633        21.202636719    
 1045-65-298     2514.0000000        2490.9113770        23.088623047    
 1045-71-365     2501.0000000        2473.4174805        27.582519531    
 1046-31-349     2549.0000000        2552.9309082       -3.9309082031    
 1046-42-354     2535.0000000        2539.5356445       -4.5356445312    
 1046-48-344     2536.0000000        2532.6838379        3.3161621094    
 1046-56-17      2529.0000000        2522.5046387        6.4953613281    
 1046-60-320     2529.0000000        2509.7973633        19.202636719    
 1046-65-298     2512.0000000        2490.9113770        21.088623047    
 1046-71-365     2500.0000000        2473.4174805        26.582519531    
 1047-31-349     2492.0000000        2552.9309082       -60.930908203    
 1047-42-354     2469.0000000        2539.5356445       -70.535644531    
 1047-48-344     2465.0000000        2532.6838379       -67.683837891    
 1047-56-17      2456.0000000        2522.5046387       -66.504638672    
 1047-60-320     2443.0000000        2509.7973633       -66.797363281    
 1047-65-298     2463.0000000        2490.9113770       -27.911376953    
 1047-71-365     2462.0000000        2473.4174805       -11.417480469    
 1059-32-70      2541.0000000        2537.6193848        3.3806152344    
 1059-56-19      2525.0000000        2504.1723633        20.827636719    
 1059-61-54      2518.0000000        2491.6799316        26.320068359    
 1059-66-32      2504.0000000        2474.5339355        29.466064453    
 1070-36-283     2528.0000000        2500.8713379        27.128662109    
 1017-17-78      2551.0000000        2565.6828613       -14.682861328    
 1017-31-349     2541.0000000        2554.6447754       -13.644775391    
 1017-37-26      2537.0000000        2548.8308105       -11.830810547    
 1017-42-355     2531.0000000        2541.0371094       -10.037109375    
 1004-71-365     2502.0000000        2464.6181641        37.381835938    
 988-2-60        2547.0000000        2557.3854980       -10.385498047    
 979-42-355      2538.0000000        2525.2768555        12.723144531    
 979-48-334      2535.0000000        2517.0312500        17.968750000    
 979-56-18       2530.0000000        2506.3527832        23.647216797    
 979-61-53       2526.0000000        2493.9038086        32.096191406    
 961-7-85        2553.0000000        2559.0837402       -6.0837402344    
 961-12-60       2552.0000000        2558.1062012       -6.1062011719    
 961-16-362      2552.0000000        2556.2658691       -4.2658691406    
 955-61-53       2538.0000000        2500.8513184        37.148681641    
 955-66-31       2528.0000000        2484.7387695        43.261230469    
 925-71-365      2505.0000000        2477.1528320        27.847167969    
 940-71-365      2503.0000000        2476.9599609        26.040039062    
 945-71-365      2504.0000000        2477.2668457        26.733154297    
 959-66-49       2516.0000000        2503.2065430        12.793457031    
 959-71-365      2504.0000000        2489.2155762        14.784423828    
 922-61-42       2543.0000000        2530.7075195        12.292480469    
 922-66-54       2523.0000000        2503.8544922        19.145507812    
 922-71-365      2511.0000000        2489.1826172        21.817382812    
 978-66-59       2532.0000000        2538.0014648       -6.0014648438    
 978-71-365      2523.0000000        2524.0087891       -1.0087890625    
 977-56-17       2602.0000000        2621.4304199       -19.430419922    
 977-61-53       2594.0000000        2613.6154785       -19.615478516    
 977-66-32       2580.0000000        2598.9355469       -18.935546875    
 973-32-70       2598.0000000        2634.8334961       -36.833496094    
 973-38-60       2590.0000000        2635.0083008       -45.008300781    
 973-56-17       2607.0000000        2624.6750488       -17.675048828    
 973-61-53       2599.0000000        2617.3220215       -18.322021484    
 954-42-354      2599.0000000        2632.5947266       -33.594726562    
 954-48-335      2608.0000000        2627.1787109       -19.178710938    
 870-12-60       2625.0000000        2658.4968262       -33.496826172    
 870-17-78       2621.0000000        2657.6938477       -36.693847656    
 870-22-89       2618.0000000        2657.0571289       -39.057128906    
 870-32-70       2613.0000000        2658.0900879       -45.090087891    
 870-37-1        2612.0000000        2657.3056641       -45.305664062    
 870-42-354      2609.0000000        2654.7177734       -45.717773438    
 869-7-171       2627.0000000        2650.9780273       -23.978027344    
 869-42-354      2609.0000000        2648.2124023       -39.212402344    
 869-56-18       2612.0000000        2640.8645020       -28.864501953    
 869-60-320      2607.0000000        2635.6877441       -28.687744141    
 869-65-299      2594.0000000        2624.7016602       -30.701660156    
 869-71-365      2580.0000000        2613.4860840       -33.486083984    
 915-66-53       2565.0000000        2562.3691406        2.6308593750    
 915-71-365      2556.0000000        2549.2949219        6.7050781250    
 912-66-41       2539.0000000        2530.9206543        8.0793457031    
 912-71-365      2518.0000000        2519.2692871       -1.2692871094    
 875-2-86        2589.0000000        2611.2202148       -22.220214844    
 879-61-53       2579.0000000        2563.7832031        15.216796875    
 879-66-46       2541.0000000        2533.0781250        7.9218750000    
 879-71-365      2540.0000000        2521.1999512        18.800048828    
 881-2-87        2569.0000000        2600.1926270       -31.192626953    
 891-48-334      2541.0000000        2550.9599609       -9.9599609375    
 891-56-18       2538.0000000        2540.4287109       -2.4287109375    
 891-61-62       2530.0000000        2527.0676270        2.9323730469    
 891-66-32       2519.0000000        2510.0124512        8.9875488281    
 891-71-64       2506.0000000        2493.1884766        12.811523438    
 876-42-355      2552.0000000        2569.5244141       -17.524414062    
 876-48-334      2539.0000000        2561.3247070       -22.324707031    
 876-56-19       2544.0000000        2551.4643555       -7.4643554688    
 876-61-62       2538.0000000        2538.0451660      -4.51660156250E-02
 876-66-32       2526.0000000        2519.4284668        6.5715332031    
 866-66-32       2529.0000000        2521.8710938        7.1289062500    
 866-71-64       2515.0000000        2506.6750488        8.3249511719    
 873-33-328      2565.0000000        2579.1369629       -14.136962891    
 918-42-355      2544.0000000        2553.9582520       -9.9582519531    
 906-37-28       2539.0000000        2562.3718262       -23.371826172    
 923-42-355      2541.0000000        2544.0424805       -3.0424804688    
 923-48-334      2538.0000000        2535.5771484        2.4228515625    
 923-56-18       2533.0000000        2525.1037598        7.8962402344    
 849-42-356      2552.0000000        2558.8051758       -6.8051757812    
 849-56-18       2543.0000000        2538.8381348        4.1618652344    
 3417-32-69      2618.0000000        2656.9699707       -38.969970703    
 3417-35-23      2607.0000000        2656.7309570       -49.730957031    
 3417-42-354     2615.0000000        2653.7890625       -38.789062500    
 3417-48-335     2618.0000000        2650.2048340       -32.204833984    
 3417-56-17      2606.0000000        2644.9316406       -38.931640625    
 3417-61-53      2601.0000000        2639.1687012       -38.168701172    
 1921-16-362     2735.0000000        2757.2312012       -22.231201172    
 1229-36-319     2700.0000000        2727.1569824       -27.156982422    
 1202-42-362     2739.0000000        2769.9150391       -30.915039062    
 1202-48-336     2748.0000000        2767.0629883       -19.062988281    
 1164-2-93       2771.0000000        2787.1813965       -16.181396484    
 1164-16-300     2748.0000000        2783.5820312       -35.582031250    
 1164-27-12      2758.0000000        2796.4689941       -38.468994141    
 1164-48-336     2788.0000000        2804.7521973       -16.752197266    
 1164-56-17      2792.0000000        2840.1254883       -48.125488281    
 1164-61-60      2780.0000000        2834.4079590       -54.407958984    
 1125-71-356     2768.0000000        2829.4946289       -61.494628906    
 1123-71-53      2768.0000000        2827.2370605       -59.237060547    
 1543-2-90       2922.0000000        2821.9824219        100.01757812    
 1543-56-19      2860.0000000        2887.1857910       -27.185791016    
 1543-66-26      2873.0000000        2862.4897461        10.510253906    
 1084-48-338     2852.0000000        2842.1818848        9.8181152344    
 1067-71-63      2781.0000000        2825.4765625       -44.476562500    
 1066-71-63      2777.0000000        2827.1220703       -50.122070312    
 1544-2-88       2878.0000000        2811.9370117        66.062988281    
 1544-12-324     2840.0000000        2809.7614746        30.238525391    
 1593-61-60      2797.0000000        2834.7922363       -37.792236328    
 1593-66-26      2774.0000000        2810.9350586       -36.935058594    
 1069-71-365     2691.0000000        2760.7492676       -69.749267578    
 1052-56-17      2728.0000000        2786.2817383       -58.281738281    
 1052-66-26      2705.0000000        2779.7592773       -74.759277344    
 989-66-20       2704.0000000        2760.1508789       -56.150878906    
 966-22-60       2729.0000000        2728.8698730       0.13012695312    
 987-12-324      2803.0000000        2811.9548340       -8.9548339844    
 987-22-33       2814.0000000        2816.4916992       -2.4916992188    
 987-27-12       2810.0000000        2821.8454590       -11.845458984    
 987-66-20       2825.0000000        2850.5200195       -25.520019531    
 858-71-63       2702.0000000        2776.0588379       -74.058837891    
 890-42-362      2717.0000000        2773.3874512       -56.387451172    
 890-48-338      2730.0000000        2773.6762695       -43.676269531    
 890-56-19       2730.0000000        2773.9333496       -43.933349609    
 890-61-60       2726.0000000        2777.3383789       -51.338378906    
 890-66-20       2715.0000000        2773.8540039       -58.854003906    
 908-71-365      2689.0000000        2751.2817383       -62.281738281    
 667-17-5        2504.0000000        2519.9201660       -15.920166016    
 667-22-1        2502.0000000        2515.6638184       -13.663818359    
 667-27-14       2494.0000000        2512.1103516       -18.110351562    
 667-31-350      2499.0000000        2510.0463867       -11.046386719    
 667-37-340      2494.0000000        2505.8315430       -11.831542969    
 667-42-351      2499.0000000        2501.4694824       -2.4694824219    
 667-48-348      2498.0000000        2502.3969727       -4.3969726562    
 652-27-14       2504.0000000        2517.1166992       -13.116699219    
 652-56-17       2507.0000000        2507.2424316      -0.24243164062    
 652-66-20       2507.0000000        2507.5549316      -0.55493164062    
 614-27-14       2526.0000000        2550.5898438       -24.589843750    
 613-56-17       2525.0000000        2541.3591309       -16.359130859    
 641-1-260       2528.0000000        2555.4228516       -27.422851562    
 641-26-1        2539.0000000        2550.6933594       -11.693359375    
 641-56-18       2538.0000000        2538.2575684      -0.25756835938    
 641-66-31       2538.0000000        2539.3469238       -1.3469238281    
 793-6-289       2382.0000000        2391.5649414       -9.5649414062    
 793-48-348      2377.0000000        2368.8071289        8.1928710938    
 793-61-25       2381.0000000        2367.8884277        13.111572266    
 793-65-357      2380.0000000        2365.3828125        14.617187500    
 793-71-365      2382.0000000        2365.4230957        16.576904297    
 762-56-18       2383.0000000        2370.9108887        12.089111328    
 762-61-61       2384.0000000        2370.3342285        13.665771484    
 762-66-34       2383.0000000        2369.0288086        13.971191406    
 758-48-348      2397.0000000        2394.9287109        2.0712890625    
 758-55-353      2400.0000000        2394.6267090        5.3732910156    
 758-61-25       2401.0000000        2395.4848633        5.5151367188    
 758-65-362      2400.0000000        2393.2866211        6.7133789062    
 758-71-365      2401.0000000        2392.7541504        8.2458496094    
 766-10-104      2408.0000000        2438.6660156       -30.666015625    
 773-36-156      2387.0000000        2415.5385742       -28.538574219    
 722-8-276       2447.0000000        2462.6843262       -15.684326172    
 722-12-360      2448.0000000        2461.1040039       -13.104003906    
 722-22-3        2447.0000000        2454.6994629       -7.6994628906    
 741-65-362      2421.0000000        2419.2934570        1.7065429688    
 741-71-365      2422.0000000        2418.5263672        3.4736328125    
 738-65-362      2422.0000000        2423.2656250       -1.2656250000    
 738-71-365      2422.0000000        2422.5568848      -0.55688476562    
 743-65-362      2421.0000000        2416.1818848        4.8181152344    
 743-71-365      2421.0000000        2415.3403320        5.6596679688    
 740-65-362      2421.0000000        2419.1008301        1.8991699219    
 740-71-365      2421.0000000        2418.2470703        2.7529296875    
 737-22-3        2416.0000000        2428.8920898       -12.892089844    
 737-48-348      2416.0000000        2417.8544922       -1.8544921875    
 737-61-25       2418.0000000        2420.1330566       -2.1330566406    
 737-65-362      2418.0000000        2417.9826660       1.73339843750E-02
 737-71-365      2418.0000000        2416.9406738        1.0593261719    
 723-12-180      2416.0000000        2398.0524902        17.947509766    
 723-17-9        2414.0000000        2396.3005371        17.699462891    
 723-22-1        2414.0000000        2393.2917480        20.708251953    
 723-32-85       2411.0000000        2388.4326172        22.567382812    
 748-61-61       2238.0000000        2251.9055176       -13.905517578    
 748-66-33       2227.0000000        2248.7194824       -21.719482422    
 714-56-19       2237.0000000        2290.0800781       -53.080078125    
 714-61-61       2235.0000000        2286.9484863       -51.948486328    
 715-56-17       2450.0000000        2462.8208008       -12.820800781    
 715-61-62       2457.0000000        2464.8305664       -7.8305664062    
 715-66-35       2456.0000000        2463.0039062       -7.0039062500    
 713-56-17       2455.0000000        2465.0266113       -10.026611328    
 713-66-35       2454.0000000        2465.2265625       -11.226562500    
 702-65-362      2463.0000000        2457.4628906        5.5371093750    
 702-71-365      2463.0000000        2456.3017578        6.6982421875    
 700-36-164      2460.0000000        2471.5852051       -11.585205078    
 700-55-353      2466.0000000        2467.0002441       -1.0002441406    
 700-61-25       2467.0000000        2470.0390625       -3.0390625000    
 700-65-362      2466.0000000        2467.2229004       -1.2229003906    
 700-71-365      2467.0000000        2466.2497559       0.75024414062    
 671-27-14       2489.0000000        2497.9101562       -8.9101562500    
 671-55-353      2494.0000000        2489.6330566        4.3669433594    
 671-61-25       2495.0000000        2491.8090820        3.1909179688    
 656-12-178      2494.0000000        2517.6752930       -23.675292969    
 656-56-17       2499.0000000        2502.0751953       -3.0751953125    
 656-66-20       2499.0000000        2500.9294434       -1.9294433594    
 656-71-365      2499.0000000        2500.0258789       -1.0258789062    
 655-26-362      2408.0000000        2409.4245605       -1.4245605469    
 655-32-85       2406.0000000        2407.6347656       -1.6347656250    
 655-35-53       2401.0000000        2406.4760742       -5.4760742188    
 655-56-18       2407.0000000        2398.2111816        8.7888183594    
 689-66-33       2257.0000000        2328.0400391       -71.040039062    
 688-71-365      2245.0000000        2330.5959473       -85.595947266    
 682-56-18       2351.0000000        2355.5708008       -4.5708007812    
 636-56-18       2491.0000000        2477.0534668        13.946533203    
 636-61-62       2491.0000000        2477.2099609        13.790039062    
 636-66-20       2492.0000000        2476.7580566        15.241943359    
 648-71-365      2482.0000000        2474.4030762        7.5969238281    
 601-48-348      2513.0000000        2498.2436523        14.756347656    
 601-55-353      2504.0000000        2498.1721191        5.8278808594    
 601-61-34       2505.0000000        2498.2348633        6.7651367188    
 601-65-362      2505.0000000        2498.0703125        6.9296875000    
 601-71-365      2505.0000000        2496.5703125        8.4296875000    
 632-56-17       2501.0000000        2526.1958008       -25.195800781    
 632-66-20       2500.0000000        2526.6811523       -26.681152344    
 602-22-1        2498.0000000        2530.0234375       -32.023437500    
 579-56-18       2514.0000000        2532.5834961       -18.583496094    
 598-42-351      2491.0000000        2473.9497070        17.050292969    
 598-48-348      2490.0000000        2471.8913574        18.108642578    
 598-56-18       2494.0000000        2470.9841309        23.015869141    
 598-60-323      2494.0000000        2470.5598145        23.440185547    
 598-65-300      2493.0000000        2469.9072266        23.092773438    
 598-71-365      2495.0000000        2468.4111328        26.588867188    
 739-37-15       2205.0000000        2232.3720703       -27.372070312    
 739-48-341      2200.0000000        2220.4733887       -20.473388672    
 739-55-353      2197.0000000        2212.3205566       -15.320556641    
 739-61-34       2193.0000000        2209.3063965       -16.306396484    
 739-65-362      2190.0000000        2204.5273438       -14.527343750    
 739-71-365      2186.0000000        2198.6745605       -12.674560547    
 720-12-152      2215.0000000        2256.5097656       -41.509765625    
 720-17-9        2226.0000000        2256.2531738       -30.253173828    
 720-21-364      2222.0000000        2255.4538574       -33.453857422    
 720-66-34       2202.0000000        2222.4736328       -20.473632812    
 747-48-341      2159.0000000        2195.0124512       -36.012451172    
 747-55-346      2172.0000000        2187.9724121       -15.972412109    
 747-61-34       2161.0000000        2182.4692383       -21.469238281    
 747-65-362      2158.0000000        2177.0407715       -19.040771484    
 747-71-365      2157.0000000        2170.5581055       -13.558105469    
 717-27-13       2532.0000000        2532.3881836      -0.38818359375    
 644-42-343      2450.0000000        2485.9514160       -35.951416016    
 625-42-343      2439.0000000        2476.9304199       -37.930419922    
 620-42-343      2444.0000000        2477.2844238       -33.284423828    
 634-35-29       2574.0000000        2619.1105957       -45.110595703    
 634-42-322      2559.0000000        2603.4650879       -44.465087891    
 554-42-350      2595.0000000        2612.6096191       -17.609619141    
 561-42-349      2661.0000000        2652.7087402        8.2912597656    
 535-42-350      2638.0000000        2640.3774414       -2.3774414062    
 577-22-34       2586.0000000        2589.2619629       -3.2619628906    
 577-27-59       2549.0000000        2537.2495117        11.750488281    
 577-31-339      2500.0000000        2497.6076660        2.3923339844    
 577-37-1        2481.0000000        2491.7958984       -10.795898438    
 577-42-343      2452.0000000        2486.2683105       -34.268310547    
 577-48-343      2460.0000000        2482.8132324       -22.813232422    
 577-56-16       2425.0000000        2439.5393066       -14.539306641    
 577-60-322      2411.0000000        2423.3657227       -12.365722656    
 577-65-302      2452.0000000        2453.0747070       -1.0747070312    
 577-71-365      2473.0000000        2484.4089355       -11.408935547    
 581-1-365       2613.0000000        2619.5964355       -6.5964355469    
 582-42-343      2423.0000000        2456.6191406       -33.619140625    
 582-56-16       2421.0000000        2418.9138184        2.0861816406    
 586-27-56       2560.0000000        2528.8273926        31.172607422    
 586-37-316      2455.0000000        2456.7197266       -1.7197265625    
 586-42-343      2436.0000000        2448.4201660       -12.420166016    
 586-56-16       2414.0000000        2401.5207520        12.479248047    
 586-61-55       2392.0000000        2384.9118652        7.0881347656    
 586-66-46       2450.0000000        2456.0212402       -6.0212402344    
 553-22-39       2593.0000000        2584.4333496        8.5666503906    
 553-26-299      2554.0000000        2547.0212402        6.9787597656    
 553-31-348      2505.0000000        2503.8178711        1.1821289062    
 553-36-21       2455.0000000        2474.2539062       -19.253906250    
 584-22-44       2584.0000000        2575.9814453        8.0185546875    
 584-27-56       2547.0000000        2533.5402832        13.459716797    
 584-31-339      2495.0000000        2506.7109375       -11.710937500    
 584-37-1        2474.0000000        2469.2597656        4.7402343750    
 584-42-343      2433.0000000        2452.4226074       -19.422607422    
 584-56-16       2410.0000000        2413.7514648       -3.7514648438    
 584-61-55       2391.0000000        2397.3125000       -6.3125000000    
 584-66-46       2446.0000000        2465.0788574       -19.078857422    
 585-22-44       2583.0000000        2583.1682129      -0.16821289062    
 585-27-56       2547.0000000        2534.1262207        12.873779297    
 585-31-339      2498.0000000        2498.7900391      -0.79003906250    
 585-37-1        2467.0000000        2478.6325684       -11.632568359    
 585-42-343      2437.0000000        2468.9211426       -31.921142578    
 585-56-16       2417.0000000        2413.9218750        3.0781250000    
 585-61-55       2400.0000000        2398.0637207        1.9362792969    
 585-66-46       2434.0000000        2453.7678223       -19.767822266    
 557-38-1        2450.0000000        2445.6975098        4.3024902344    
 557-42-343      2435.0000000        2447.6088867       -12.608886719    
 557-66-46       2446.0000000        2454.5568848       -8.5568847656    
 548-1-365       2625.0000000        2628.0412598       -3.0412597656    
 575-17-55       2606.0000000        2589.5217285        16.478271484    
 575-22-44       2585.0000000        2573.0190430        11.980957031    
 575-26-299      2563.0000000        2545.8349609        17.165039062    
 563-17-55       2608.0000000        2594.3156738        13.684326172    
 563-22-44       2582.0000000        2577.4079590        4.5920410156    
 563-66-46       2450.0000000        2485.1904297       -35.190429688    
 556-26-299      2555.0000000        2550.7160645        4.2839355469    
 556-31-335      2494.0000000        2510.8972168       -16.897216797    
 556-36-317      2441.0000000        2455.5148926       -14.514892578    
 556-56-10       2417.0000000        2450.3859863       -33.385986328    
 556-61-56       2388.0000000        2432.3142090       -44.314208984    
 556-66-34       2437.0000000        2480.1608887       -43.160888672    
 558-26-299      2562.0000000        2553.8928223        8.1071777344    
 558-31-317      2494.0000000        2516.4323730       -22.432373047    
 558-38-319      2491.0000000        2478.6940918        12.305908203    
 572-1-365       2603.0000000        2621.5036621       -18.503662109    
 543-1-365       2605.0000000        2628.7368164       -23.736816406    
 529-48-336      2480.0000000        2500.8371582       -20.837158203    
 529-56-10       2437.0000000        2477.6542969       -40.654296875    
 529-61-56       2410.0000000        2459.7558594       -49.755859375    
 529-66-34       2445.0000000        2481.3027344       -36.302734375    
 798-1-365       2539.0000000        2543.1374512       -4.1374511719    
 794-1-77        2534.0000000        2542.5488281       -8.5488281250    
 772-3-59        2562.0000000        2551.1657715        10.834228516    
 792-1-365       2540.0000000        2540.8959961      -0.89599609375    
 790-1-274       2535.0000000        2536.1940918       -1.1940917969    
 790-6-286       2531.0000000        2534.7595215       -3.7595214844    
 790-11-258      2529.0000000        2531.4924316       -2.4924316406    
 790-17-4        2524.0000000        2528.0317383       -4.0317382812    
 790-22-34       2517.0000000        2516.5791016       0.42089843750    
 790-27-53       2506.0000000        2504.4370117        1.5629882812    
 790-31-335      2490.0000000        2492.6215820       -2.6215820312    
 790-37-32       2471.0000000        2477.8688965       -6.8688964844    
 790-42-351      2453.0000000        2471.6196289       -18.619628906    
 790-48-337      2445.0000000        2471.2243652       -26.224365234    
 790-61-54       2443.0000000        2441.1953125        1.8046875000    
 783-1-274       2535.0000000        2545.3620605       -10.362060547    
 783-6-288       2532.0000000        2543.4709473       -11.470947266    
 783-11-258      2528.0000000        2540.7250977       -12.725097656    
 783-17-4        2528.0000000        2537.4436035       -9.4436035156    
 783-17-47       2528.0000000        2537.3669434       -9.3669433594    
 783-22-34       2521.0000000        2525.6071777       -4.6071777344    
 783-26-280      2507.0000000        2513.3652344       -6.3652343750    
 783-31-335      2498.0000000        2500.2829590       -2.2829589844    
 783-42-351      2458.0000000        2479.9082031       -21.908203125    
 783-61-54       2445.0000000        2449.0803223       -4.0803222656    
 799-1-365       2542.0000000        2536.5151367        5.4848632812    
 774-65-357      2494.0000000        2433.2150879        60.784912109    
 774-71-362      2519.0000000        2441.2011719        77.798828125    
 751-1-365       2570.0000000        2565.6381836        4.3618164062    
 746-22-38       2536.0000000        2535.4904785       0.50952148438    
 746-26-280      2500.0000000        2514.2341309       -14.234130859    
 746-32-41       2498.0000000        2501.3916016       -3.3916015625    
 746-48-362      2477.0000000        2475.6264648        1.3735351562    
 746-56-9        2486.0000000        2466.0478516        19.952148438    
 746-61-47       2486.0000000        2447.7585449        38.241455078    
 746-65-357      2520.0000000        2446.4218750        73.578125000    
 746-71-362      2538.0000000        2457.5866699        80.413330078    
 745-1-55        2556.0000000        2566.9770508       -10.977050781    
 754-48-342      2454.0000000        2474.6650391       -20.665039062    
 754-56-18       2468.0000000        2464.3166504        3.6833496094    
 754-61-53       2463.0000000        2445.6328125        17.367187500    
 754-66-32       2491.0000000        2443.6979980        47.302001953    
 721-12-313      2560.0000000        2567.1328125       -7.1328125000    
 721-17-52       2559.0000000        2563.2434082       -4.2434082031    
 721-22-38       2545.0000000        2546.5539551       -1.5539550781    
 721-26-287      2529.0000000        2524.4428711        4.5571289062    
 721-31-335      2519.0000000        2514.3222656        4.6777343750    
 721-36-318      2501.0000000        2497.9765625        3.0234375000    
 721-42-350      2487.0000000        2492.9191895       -5.9191894531    
 721-48-343      2496.0000000        2489.5610352        6.4389648438    
 721-56-19       2501.0000000        2477.3701172        23.629882812    
 721-61-55       2517.0000000        2461.2065430        55.793457031    
 721-66-46       2551.0000000        2469.9008789        81.099121094    
 729-43-4        2481.0000000        2491.8320312       -10.832031250    
 729-48-362      2483.0000000        2486.4904785       -3.4904785156    
 729-56-9        2494.0000000        2476.0341797        17.965820312    
 729-66-1        2530.0000000        2466.1796875        63.820312500    
 729-71-362      2550.0000000        2480.6391602        69.360839844    
 706-17-52       2567.0000000        2570.7993164       -3.7993164062    
 706-22-37       2551.0000000        2551.4020996      -0.40209960938    
 706-27-62       2534.0000000        2531.4934082        2.5065917969    
 706-31-335      2512.0000000        2518.2531738       -6.2531738281    
 706-43-4        2494.0000000        2496.5205078       -2.5205078125    
 706-48-362      2496.0000000        2490.8193359        5.1806640625    
 706-56-9        2500.0000000        2481.3107910        18.689208984    
 706-61-47       2502.0000000        2468.0476074        33.952392578    
 706-65-357      2537.0000000        2480.3854980        56.614501953    
 706-71-362      2557.0000000        2496.6040039        60.395996094    
 694-17-52       2576.0000000        2577.3598633       -1.3598632812    
 694-22-38       2562.0000000        2557.9174805        4.0825195312    
 694-26-285      2534.0000000        2542.3586426       -8.3586425781    
 694-31-344      2513.0000000        2525.0834961       -12.083496094    
 694-36-354      2476.0000000        2508.3408203       -32.340820312    
 694-43-4        2493.0000000        2501.7089844       -8.7089843750    
 694-48-362      2498.0000000        2495.3549805        2.6450195312    
 694-56-9        2505.0000000        2485.7209473        19.279052734    
 694-61-47       2504.0000000        2474.4147949        29.585205078    
 694-65-357      2533.0000000        2482.6872559        50.312744141    
 694-71-362      2554.0000000        2498.6267090        55.373291016    
 716-1-365       2575.0000000        2582.2424316       -7.2424316406    
 719-12-121      2562.0000000        2569.5148926       -7.5148925781    
 708-8-302       2566.0000000        2576.5605469       -10.560546875    
 708-12-64       2563.0000000        2575.4328613       -12.432861328    
 708-17-3        2561.0000000        2569.8581543       -8.8581542969    
 708-22-38       2547.0000000        2551.4968262       -4.4968261719    
 708-26-287      2532.0000000        2530.6291504        1.3708496094    
 708-31-335      2523.0000000        2519.5417480        3.4582519531    
 708-42-350      2497.0000000        2496.2922363       0.70776367188    
 708-48-343      2502.0000000        2494.2229004        7.7770996094    
 685-1-365       2591.0000000        2595.7607422       -4.7607421875    
 674-22-38       2556.0000000        2559.7241211       -3.7241210938    
 674-31-344      2533.0000000        2525.8276367        7.1723632812    
 674-42-350      2506.0000000        2498.0258789        7.9741210938    
 674-48-343      2513.0000000        2499.1923828        13.807617188    
 674-56-19       2518.0000000        2484.2407227        33.759277344    
 674-61-60       2556.0000000        2476.2653809        79.734619141    
 674-66-48       2580.0000000        2507.5717773        72.428222656    
 676-27-10       2543.0000000        2542.6044922       0.39550781250    
 687-17-3        2567.0000000        2575.6223145       -8.6223144531    
 687-22-38       2551.0000000        2556.8015137       -5.8015136719    
 687-27-11       2542.0000000        2538.3142090        3.6857910156    
 687-42-350      2486.0000000        2498.0651855       -12.065185547    
 687-48-343      2502.0000000        2499.0251465        2.9748535156    
 687-56-19       2504.0000000        2483.1992188        20.800781250    
 687-61-55       2542.0000000        2471.8249512        70.175048828    
 687-66-46       2569.0000000        2499.7644043        69.235595703    
 686-56-19       2495.0000000        2479.8662109        15.133789062    
 686-66-46       2558.0000000        2493.2998047        64.700195312    
 677-17-53       2576.0000000        2576.9440918      -0.94409179688    
 677-22-38       2559.0000000        2559.1728516      -0.17285156250    
 677-26-299      2550.0000000        2541.9089355        8.0910644531    
 677-31-337      2534.0000000        2525.9006348        8.0993652344    
 677-37-336      2522.0000000        2503.2402344        18.759765625    
 677-42-350      2496.0000000        2498.4062500       -2.4062500000    
 677-48-343      2506.0000000        2500.9826660        5.0173339844    
 677-56-19       2507.0000000        2483.3986816        23.601318359    
 677-61-55       2540.0000000        2473.9970703        66.002929688    
 677-66-46       2576.0000000        2507.7106934        68.289306641    
 675-5-102       2577.0000000        2589.9653320       -12.965332031    
 675-11-305      2574.0000000        2588.1499023       -14.149902344    
 675-27-11       2549.0000000        2542.2387695        6.7612304688    
 665-17-53       2574.0000000        2579.2045898       -5.2045898438    
 665-22-38       2554.0000000        2561.2517090       -7.2517089844    
 665-27-11       2551.0000000        2544.0002441        6.9997558594    
 665-36-357      2509.0000000        2506.0883789        2.9116210938    
 665-42-350      2499.0000000        2497.6818848        1.3181152344    
 665-56-19       2510.0000000        2483.6799316        26.320068359    
 665-61-55       2552.0000000        2484.1018066        67.898193359    
 665-66-46       2586.0000000        2529.8625488        56.137451172    
 657-48-343      2507.0000000        2502.1499023        4.8500976562    
 649-3-294       2582.0000000        2600.4343262       -18.434326172    
 649-6-290       2584.0000000        2590.2758789       -6.2758789062    
 649-11-307      2579.0000000        2593.5527344       -14.552734375    
 649-17-3        2574.0000000        2581.8879395       -7.8879394531    
 649-22-38       2549.0000000        2563.6801758       -14.680175781    
 649-26-287      2552.0000000        2547.2756348        4.7243652344    
 649-31-335      2532.0000000        2527.2514648        4.7485351562    
 649-38-60       2521.0000000        2502.1992188        18.800781250    
 649-42-350      2502.0000000        2496.3571777        5.6428222656    
 649-48-343      2512.0000000        2502.2189941        9.7810058594    
 649-56-19       2516.0000000        2482.9414062        33.058593750    
 649-61-55       2570.0000000        2485.0883789        84.911621094    
 651-3-294       2582.0000000        2600.8889160       -18.888916016    
 651-6-290       2584.0000000        2591.3745117       -7.3745117188    
 651-11-307      2579.0000000        2593.4299316       -14.429931641    
 651-17-52       2575.0000000        2582.0415039       -7.0415039062    
 651-27-11       2555.0000000        2547.3117676        7.6882324219    
 651-42-350      2502.0000000        2497.3598633        4.6401367188    
 651-48-343      2513.0000000        2501.6110840        11.388916016    
 651-56-19       2517.0000000        2484.3686523        32.631347656    
 651-61-60       2571.0000000        2482.1503906        88.849609375    
 651-66-46       2592.0000000        2524.4538574        67.546142578    
 679-17-52       2569.0000000        2579.4892578       -10.489257812    
 679-22-37       2550.0000000        2555.9335938       -5.9335937500    
 679-26-336      2534.0000000        2541.9384766       -7.9384765625    
 679-48-362      2499.0000000        2495.9479980        3.0520019531    
 679-56-9        2503.0000000        2485.7558594        17.244140625    
 679-61-47       2506.0000000        2474.6269531        31.373046875    
 679-65-357      2539.0000000        2490.7697754        48.230224609    
 679-71-362      2559.0000000        2508.9831543        50.016845703    
 680-17-52       2574.0000000        2581.3442383       -7.3442382812    
 680-22-82       2554.0000000        2557.5024414       -3.5024414062    
 680-27-62       2543.0000000        2543.7866211      -0.78662109375    
 680-31-335      2516.0000000        2524.8664551       -8.8664550781    
 680-39-60       2491.0000000        2505.8215332       -14.821533203    
 680-43-4        2504.0000000        2501.2082520        2.7917480469    
 680-48-362      2506.0000000        2496.0312500        9.9687500000    
 680-56-9        2508.0000000        2486.9372559        21.062744141    
 680-61-47       2508.0000000        2476.0595703        31.940429688    
 680-65-357      2540.0000000        2487.5412598        52.458740234    
 680-71-362      2560.0000000        2505.3330078        54.666992188    
 684-17-52       2569.0000000        2576.9587402       -7.9587402344    
 684-22-37       2552.0000000        2556.6945801       -4.6945800781    
 684-26-349      2529.0000000        2539.8422852       -10.842285156    
 684-31-335      2515.0000000        2523.7670898       -8.7670898438    
 684-48-362      2497.0000000        2496.2348633       0.76513671875    
 684-56-9        2504.0000000        2484.1979980        19.802001953    
 684-66-1        2542.0000000        2493.0373535        48.962646484    
 684-71-362      2561.0000000        2510.8293457        50.170654297    
 664-1-365       2593.0000000        2602.7717285       -9.7717285156    
 654-12-67       2578.0000000        2592.9226074       -14.922607422    
 654-17-52       2574.0000000        2583.5119629       -9.5119628906    
 654-22-37       2548.0000000        2564.3930664       -16.393066406    
 654-26-285      2532.0000000        2549.7094727       -17.709472656    
 654-31-335      2524.0000000        2528.6679688       -4.6679687500    
 654-38-32       2520.0000000        2505.4765625        14.523437500    
 654-42-349      2476.0000000        2499.2480469       -23.248046875    
 654-48-343      2493.0000000        2500.3515625       -7.3515625000    
 654-56-19       2506.0000000        2486.2456055        19.754394531    
 654-61-60       2512.0000000        2477.3439941        34.656005859    
 654-66-49       2540.0000000        2505.5131836        34.486816406    
 658-32-41       2519.0000000        2530.1662598       -11.166259766    
 658-36-357      2482.0000000        2514.6787109       -32.678710938    
 658-43-4        2484.0000000        2504.3867188       -20.386718750    
 658-48-362      2493.0000000        2497.0869141       -4.0869140625    
 658-56-9        2515.0000000        2487.7163086        27.283691406    
 658-61-47       2509.0000000        2477.1469727        31.853027344    
 658-65-357      2542.0000000        2489.5004883        52.499511719    
 658-71-362      2564.0000000        2509.2177734        54.782226562    
 673-35-360      2507.0000000        2518.6850586       -11.685058594    
 673-56-9        2508.0000000        2488.7143555        19.285644531    
 673-61-47       2504.0000000        2479.0092773        24.990722656    
 673-65-357      2527.0000000        2485.5322266        41.467773438    
 673-70-334      2545.0000000        2500.2421875        44.757812500    
 673-71-362      2550.0000000        2503.9438477        46.056152344    
 653-32-41       2506.0000000        2536.1196289       -30.119628906    
 653-39-32       2513.0000000        2515.7795410       -2.7795410156    
 653-43-4        2493.0000000        2509.6835938       -16.683593750    
 653-48-362      2495.0000000        2497.9562988       -2.9562988281    
 653-56-9        2514.0000000        2490.5283203        23.471679688    
 653-61-47       2500.0000000        2481.4785156        18.521484375    
 653-65-357      2517.0000000        2486.7915039        30.208496094    
 653-71-362      2552.0000000        2505.9362793        46.063720703    
 642-36-352      2607.0000000        2598.1787109        8.8212890625    
 642-43-4        2588.0000000        2578.6291504        9.3708496094    
 642-48-362      2581.0000000        2562.0478516        18.952148438    
 642-56-9        2580.0000000        2553.1520996        26.847900391    
 642-61-47       2572.0000000        2544.4858398        27.514160156    
 642-65-357      2568.0000000        2539.2783203        28.721679688    
 642-71-362      2571.0000000        2538.3598633        32.640136719    
 637-26-295      2608.0000000        2600.9650879        7.0349121094    
 637-31-349      2611.0000000        2590.6120605        20.387939453    
 637-36-352      2607.0000000        2576.8056641        30.194335938    
 637-43-4        2578.0000000        2557.1843262        20.815673828    
 637-48-362      2568.0000000        2540.1369629        27.863037109    
 637-56-9        2569.0000000        2527.1381836        41.861816406    
 637-61-47       2559.0000000        2518.0893555        40.910644531    
 637-65-357      2553.0000000        2515.5180664        37.481933594    
 637-71-362      2566.0000000        2523.2263184        42.773681641    
 624-7-99        2610.0000000        2624.7775879       -14.777587891    
 624-12-103      2609.0000000        2622.2402344       -13.240234375    
 624-17-52       2607.0000000        2619.3513184       -12.351318359    
 624-22-39       2605.0000000        2613.9953613       -8.9953613281    
 624-27-5        2602.0000000        2606.6523438       -4.6523437500    
 624-32-1        2598.0000000        2597.5979004       0.40209960938    
 595-37-32       2599.0000000        2582.8278809        16.172119141    
 595-43-4        2582.0000000        2561.9401855        20.059814453    
 595-48-362      2558.0000000        2546.2004395        11.799560547    
 595-56-9        2570.0000000        2535.1750488        34.824951172    
 595-61-47       2560.0000000        2524.6503906        35.349609375    
 595-65-357      2558.0000000        2522.1911621        35.808837891    
 595-71-362      2564.0000000        2529.7692871        34.230712891    
 604-31-323      2609.0000000        2611.1726074       -2.1726074219    
 604-37-32       2621.0000000        2597.7846680        23.215332031    
 604-43-4        2602.0000000        2579.2585449        22.741455078    
 604-48-362      2594.0000000        2566.0012207        27.998779297    
 604-56-9        2588.0000000        2555.8696289        32.130371094    
 604-61-47       2574.0000000        2546.7006836        27.299316406    
 604-65-357      2571.0000000        2542.1157227        28.884277344    
 604-71-362      2569.0000000        2543.7646484        25.235351562    
 596-36-352      2575.0000000        2559.4067383        15.593261719    
 596-43-4        2524.0000000        2540.8715820       -16.871582031    
 596-48-362      2513.0000000        2524.3066406       -11.306640625    
 596-56-9        2539.0000000        2513.6301270        25.369873047    
 596-61-47       2514.0000000        2504.0744629        9.9255371094    
 596-65-357      2515.0000000        2505.2053223        9.7946777344    
 596-71-362      2556.0000000        2515.5075684        40.492431641    
 609-43-4        2521.0000000        2508.7282715        12.271728516    
 609-56-9        2525.0000000        2494.7534180        30.246582031    
 609-61-47       2518.0000000        2483.2216797        34.778320312    
 609-65-357      2540.0000000        2495.8889160        44.111083984    
 609-71-362      2563.0000000        2513.2438965        49.756103516    
 639-27-10       2551.0000000        2554.9509277       -3.9509277344    
 639-66-49       2549.0000000        2501.3208008        47.679199219    
 626-27-10       2555.0000000        2559.0351562       -4.0351562500    
 626-42-349      2510.0000000        2503.9453125        6.0546875000    
 626-48-343      2512.0000000        2502.5695801        9.4304199219    
 626-56-19       2525.0000000        2490.7832031        34.216796875    
 626-61-60       2519.0000000        2479.8862305        39.113769531    
 626-66-49       2548.0000000        2500.8178711        47.182128906    
 635-17-52       2587.0000000        2591.4101562       -4.4101562500    
 635-22-38       2568.0000000        2574.0026855       -6.0026855469    
 635-26-280      2551.0000000        2560.7238770       -9.7238769531    
 635-42-349      2495.0000000        2506.1245117       -11.124511719    
 635-48-343      2520.0000000        2501.5449219        18.455078125    
 635-56-19       2524.0000000        2491.4921875        32.507812500    
 635-61-60       2522.0000000        2480.6066895        41.393310547    
 635-66-49       2547.0000000        2496.5129395        50.487060547    
 629-11-307      2590.0000000        2598.2856445       -8.2856445312    
 629-16-364      2586.0000000        2587.9719238       -1.9719238281    
 629-21-332      2577.0000000        2569.6306152        7.3693847656    
 629-26-287      2575.0000000        2554.6704102        20.329589844    
 629-31-335      2555.0000000        2531.3000488        23.699951172    
 629-37-32       2545.0000000        2509.1240234        35.875976562    
 629-48-343      2540.0000000        2502.8520508        37.147949219    
 629-56-23       2541.0000000        2486.9304199        54.069580078    
 629-61-60       2574.0000000        2478.3000488        95.699951172    
 629-66-46       2595.0000000        2511.4916992        83.508300781    
 628-11-307      2587.0000000        2599.1838379       -12.183837891    
 628-17-52       2582.0000000        2589.0727539       -7.0727539062    
 628-36-356      2511.0000000        2512.5234375       -1.5234375000    
 628-42-349      2508.0000000        2501.2160645        6.7839355469    
 628-48-343      2521.0000000        2502.4841309        18.515869141    
 628-56-19       2531.0000000        2488.8449707        42.155029297    
 628-61-60       2532.0000000        2478.6425781        53.357421875    
 628-66-46       2549.0000000        2503.8271484        45.172851562    
 630-12-310      2581.0000000        2594.7045898       -13.704589844    
 630-17-3        2586.0000000        2586.7277832      -0.72778320312    
 630-22-38       2558.0000000        2568.1638184       -10.163818359    
 630-27-11       2563.0000000        2551.2753906        11.724609375    
 630-36-357      2528.0000000        2506.1701660        21.829833984    
 630-42-350      2531.0000000        2495.3806152        35.619384766    
 630-48-343      2536.0000000        2503.2001953        32.799804688    
 630-56-19       2538.0000000        2484.2316895        53.768310547    
 630-61-60       2582.0000000        2481.2687988        100.73120117    
 630-66-46       2596.0000000        2525.9565430        70.043457031    
 631-17-3        2582.0000000        2588.3256836       -6.3256835938    
 631-22-32       2552.0000000        2569.3164062       -17.316406250    
 631-26-289      2555.0000000        2551.0869141        3.9130859375    
 631-31-335      2534.0000000        2524.8552246        9.1447753906    
 631-33-335      2527.0000000        2511.0510254        15.948974609    
 631-42-350      2508.0000000        2490.6679688        17.332031250    
 631-48-343      2519.0000000        2503.3005371        15.699462891    
 631-56-19       2524.0000000        2478.6882324        45.311767578    
 631-61-55       2581.0000000        2474.7023926        106.29760742    
 631-66-46       2598.0000000        2528.0842285        69.915771484    
 593-27-11       2564.0000000        2552.8840332        11.115966797    
 593-61-55       2584.0000000        2468.6706543        115.32934570    
 593-66-46       2601.0000000        2519.1760254        81.823974609    
 592-1-365       2597.0000000        2617.3405762       -20.340576172    
 587-7-101       2597.0000000        2603.0310059       -6.0310058594    
 587-11-307      2592.0000000        2603.7868652       -11.786865234    
 587-17-53       2588.0000000        2591.2895508       -3.2895507812    
 587-26-287      2560.0000000        2554.8505859        5.1494140625    
 587-31-335      2541.0000000        2523.6203613        17.379638672    
 587-38-60       2529.0000000        2493.9960938        35.003906250    
 587-42-350      2514.0000000        2484.4970703        29.502929688    
 587-48-343      2528.0000000        2504.0524902        23.947509766    
 587-56-19       2533.0000000        2479.3076172        53.692382812    
 587-61-55       2583.0000000        2456.0295410        126.97045898    
 587-66-46       2601.0000000        2498.6503906        102.34960938    
 591-11-333      2581.0000000        2603.5039062       -22.503906250    
 591-17-53       2583.0000000        2591.9687500       -8.9687500000    
 591-42-350      2513.0000000        2490.2900391        22.709960938    
 597-6-79        2592.0000000        2603.5141602       -11.514160156    
 597-11-307      2591.0000000        2603.1245117       -12.124511719    
 597-17-53       2582.0000000        2591.6582031       -9.6582031250    
 597-26-287      2562.0000000        2557.1921387        4.8078613281    
 597-42-350      2512.0000000        2492.5212402        19.478759766    
 597-48-343      2526.0000000        2505.0571289        20.942871094    
 597-56-19       2531.0000000        2485.2797852        45.720214844    
 597-61-60       2565.0000000        2476.2250977        88.774902344    
 597-66-46       2587.0000000        2517.0932617        69.906738281    
 607-42-349      2527.0000000        2497.9304199        29.069580078    
 607-48-343      2540.0000000        2504.3940430        35.605957031    
 607-56-23       2545.0000000        2488.0280762        56.971923828    
 607-61-60       2554.0000000        2477.7136230        76.286376953    
 607-66-46       2584.0000000        2510.7026367        73.297363281    
 568-48-343      2551.0000000        2507.3044434        43.695556641    
 568-56-10       2554.0000000        2491.6535645        62.346435547    
 568-61-61       2538.0000000        2475.9057617        62.094238281    
 560-1-358       2617.0000000        2622.0644531       -5.0644531250    
 560-6-340       2617.0000000        2609.4343262        7.5656738281    
 560-10-349      2599.0000000        2609.5268555       -10.526855469    
 545-38-6        2479.0000000        2464.4104004        14.589599609    
 545-42-356      2524.0000000        2466.5686035        57.431396484    
 538-1-365       2620.0000000        2627.9882812       -7.9882812500    
 517-7-49        2615.0000000        2615.3842773      -0.38427734375    
 574-56-24       2534.0000000        2495.0539551        38.946044922    
 574-61-61       2529.0000000        2482.1774902        46.822509766    
 574-66-33       2544.0000000        2498.4020996        45.597900391    
 580-1-365       2614.0000000        2620.0891113       -6.0891113281    
 555-8-357       2608.0000000        2613.0173340       -5.0173339844    
 555-12-67       2604.0000000        2611.7270508       -7.7270507812    
 555-27-10       2570.0000000        2570.7731934      -0.77319335938    
 555-31-335      2561.0000000        2546.0817871        14.918212891    
 555-38-60       2550.0000000        2514.4501953        35.549804688    
 555-56-24       2557.0000000        2497.1645508        59.835449219    
 555-61-60       2550.0000000        2482.3845215        67.615478516    
 555-66-33       2562.0000000        2497.4841309        64.515869141    
 547-1-365       2616.0000000        2626.1892090       -10.189208984    
 546-27-10       2574.0000000        2571.3093262        2.6906738281    
 539-56-10       2551.0000000        2498.4428711        52.557128906    
 539-61-60       2539.0000000        2482.8515625        56.148437500    
 539-66-33       2553.0000000        2494.0388184        58.961181641    
 573-48-362      2549.0000000        2510.9133301        38.086669922    
 573-56-9        2550.0000000        2503.1357422        46.864257812    
 573-71-362      2581.0000000        2509.4321289        71.567871094    
 808-48-335      2558.0000000        2542.2651367        15.734863281    
 808-66-33       2546.0000000        2507.1806641        38.819335938    
 808-71-61       2531.0000000        2495.2658691        35.734130859    
 807-26-349      2539.0000000        2526.7705078        12.229492188    
 807-43-4        2524.0000000        2492.0607910        31.939208984    
 807-48-341      2491.0000000        2479.5529785        11.447021484    
 805-56-9        2512.0000000        2467.8527832        44.147216797    
 807-56-9        2486.0000000        2466.9099121        19.090087891    
 807-61-47       2499.0000000        2459.4526367        39.547363281    
 805-65-357      2511.0000000        2453.2226562        57.777343750    
 807-65-357      2507.0000000        2452.1560059        54.843994141    
 805-71-362      2516.0000000        2450.7761230        65.223876953    
 807-71-362      2516.0000000        2449.9868164        66.013183594    
 810-43-4        2471.0000000        2458.8259277        12.174072266    
 810-48-362      2465.0000000        2449.8300781        15.169921875    
 810-61-47       2472.0000000        2420.2155762        51.784423828    
 810-65-357      2509.0000000        2411.7268066        97.273193359    
 810-71-362      2533.0000000        2415.0407715        117.95922852    
 767-48-335      2562.0000000        2541.1684570        20.831542969    
 761-31-335      2494.0000000        2502.6315918       -8.6315917969    
 761-37-320      2488.0000000        2485.2358398        2.7641601562    
 761-42-355      2468.0000000        2481.8886719       -13.888671875    
 761-48-342      2479.0000000        2472.6042480        6.3957519531    
 761-56-18       2481.0000000        2462.3564453        18.643554688    
 761-61-54       2480.0000000        2447.1958008        32.804199219    
 761-66-33       2511.0000000        2443.4882812        67.511718750    
 763-42-355      2484.0000000        2490.2607422       -6.2607421875    
 763-48-342      2488.0000000        2480.6975098        7.3024902344    
 763-56-18       2488.0000000        2469.2119141        18.788085938    
 763-61-56       2488.0000000        2457.4482422        30.551757812    
 763-66-33       2514.0000000        2453.9750977        60.024902344    
 802-56-9        2469.0000000        2444.7885742        24.211425781    
 802-61-47       2460.0000000        2425.6022949        34.397705078    
 802-65-357      2496.0000000        2418.7133789        77.286621094    
 802-71-362      2515.0000000        2423.3466797        91.653320312    
 781-61-54       2482.0000000        2432.6137695        49.386230469    
 781-66-33       2514.0000000        2426.7131348        87.286865234    
 775-56-27       2485.0000000        2452.8425293        32.157470703    
 775-61-54       2484.0000000        2433.1911621        50.808837891    
 775-66-33       2515.0000000        2427.4301758        87.569824219    
 786-66-33       2504.0000000        2426.2087402        77.791259766    
 782-26-336      2502.0000000        2501.8471680       0.15283203125    
 782-31-335      2489.0000000        2491.1699219       -2.1699218750    
 782-43-4        2455.0000000        2470.3635254       -15.363525391    
 782-48-362      2463.0000000        2462.2177734       0.78222656250    
 782-56-9        2471.0000000        2452.0043945        18.995605469    
 782-61-47       2456.0000000        2432.7463379        23.253662109    
 782-65-357      2505.0000000        2426.6523438        78.347656250    
 782-71-362      2523.0000000        2435.0000000        88.000000000    
 755-27-12       2512.0000000        2510.9387207        1.0612792969    
 755-31-348      2492.0000000        2499.6723633       -7.6723632812    
 755-37-26       2467.0000000        2483.4721680       -16.472167969    
 755-42-357      2472.0000000        2479.4548340       -7.4548339844    
 755-48-342      2464.0000000        2473.6425781       -9.6425781250    
 755-56-18       2477.0000000        2463.5864258        13.413574219    
 755-60-320      2475.0000000        2445.0178223        29.982177734    
 755-65-298      2509.0000000        2441.6047363        67.395263672    
 755-71-365      2524.0000000        2452.3459473        71.654052734    
 776-42-354      2621.0000000        2654.7878418       -33.787841797    
 776-48-335      2625.0000000        2651.7353516       -26.735351562    
 776-56-17       2621.0000000        2646.7590332       -25.759033203    
 776-61-53       2616.0000000        2642.2954102       -26.295410156    
 785-32-62       2582.0000000        2606.3474121       -24.347412109    
 785-37-32       2565.0000000        2603.2741699       -38.274169922    
 785-48-334      2578.0000000        2591.2136230       -13.213623047    
 785-56-19       2574.0000000        2582.1259766       -8.1259765625    
 785-66-33       2559.0000000        2559.9318848      -0.93188476562    
 784-32-62       2579.0000000        2607.0241699       -28.024169922    
 784-66-33       2552.0000000        2560.9099121       -8.9099121094    
 777-32-6        2568.0000000        2589.9433594       -21.943359375    
 777-37-32       2563.0000000        2585.3413086       -22.341308594    
 777-42-355      2560.0000000        2578.6452637       -18.645263672    
 777-48-334      2557.0000000        2570.0136719       -13.013671875    
 777-56-18       2552.0000000        2559.2675781       -7.2675781250    
 778-42-355      2583.0000000        2578.6127930        4.3872070312    
 778-48-334      2582.0000000        2569.9387207        12.061279297    
 778-56-18       2572.0000000        2559.1923828        12.807617188    
 778-60-321      2563.0000000        2550.1877441        12.812255859    
 778-65-299      2553.0000000        2537.9189453        15.081054688    
 778-71-365      2542.0000000        2523.2211914        18.778808594    
 779-42-355      2598.0000000        2578.6127930        19.387207031    
 779-48-334      2600.0000000        2569.9387207        30.061279297    
 779-56-18       2594.0000000        2559.1923828        34.807617188    
 779-60-321      2587.0000000        2550.1877441        36.812255859    
 779-65-299      2574.0000000        2537.9189453        36.081054688    
 779-71-365      2564.0000000        2523.2211914        40.778808594    
 801-36-310      2530.0000000        2574.2058105       -44.205810547    
 797-65-356      2527.0000000        2522.2922363        4.7077636719    
 797-71-362      2516.0000000        2509.0241699        6.9758300781    
 768-42-355      2572.0000000        2570.7551270        1.2448730469    
 768-48-335      2565.0000000        2560.3720703        4.6279296875    
 732-36-316      2606.0000000        2596.0244141        9.9755859375    
 765-32-6        2602.0000000        2600.6420898        1.3579101562    
 765-42-355      2590.0000000        2591.0498047       -1.0498046875    
 765-48-348      2588.0000000        2583.3381348        4.6618652344    
 765-56-11       2585.0000000        2573.6684570        11.331542969    
 765-61-48       2578.0000000        2564.9074707        13.092529297    
 765-65-356      2569.0000000        2552.8947754        16.105224609    
 765-71-362      2559.0000000        2538.8186035        20.181396484    
 718-37-32       2606.0000000        2647.6452637       -41.645263672    
 718-48-334      2620.0000000        2639.8205566       -19.820556641    
 718-56-16       2618.0000000        2632.9580078       -14.958007812    
 718-61-53       2611.0000000        2627.4414062       -16.441406250    
 718-66-32       2605.0000000        2620.7333984       -15.733398438    
 718-71-60       2597.0000000        2612.4406738       -15.440673828    
 728-7-85        2589.0000000        2610.8120117       -21.812011719    
 728-12-124      2591.0000000        2610.0849609       -19.084960938    
 728-17-78       2590.0000000        2608.8869629       -18.886962891    
 728-27-5        2585.0000000        2603.9331055       -18.933105469    
 728-32-6        2583.0000000        2599.8444824       -16.844482422    
 728-37-32       2577.0000000        2594.7402344       -17.740234375    
 728-42-355      2577.0000000        2586.8496094       -9.8496093750    
 728-48-334      2571.0000000        2578.1320801       -7.1320800781    
 728-56-18       2565.0000000        2567.3359375       -2.3359375000    
 681-7-358       2622.0000000        2637.1584473       -15.158447266    
 681-12-103      2627.0000000        2636.9301758       -9.9301757812    
 681-17-78       2625.0000000        2636.3542480       -11.354248047    
 681-32-61       2617.0000000        2631.7202148       -14.720214844    
 681-37-32       2608.0000000        2629.0007324       -21.000732422    
 662-71-365      2600.0000000        2628.4865723       -28.486572266    
 616-42-355      2610.0000000        2634.4873047       -24.487304688    
 616-56-16       2613.0000000        2617.2561035       -4.2561035156    
 825-71-62       2683.0000000        2784.1530762       -101.15307617    
 608-32-62       2625.0000000        2656.7246094       -31.724609375    
 608-48-348      2612.0000000        2646.6701660       -34.670166016    
 608-56-11       2610.0000000        2640.2045898       -30.204589844    
 608-61-41       2604.0000000        2634.9982910       -30.998291016    
 608-65-355      2598.0000000        2630.1049805       -32.104980469    
 608-71-365      2590.0000000        2621.8156738       -31.815673828    
 559-8-73        2650.0000000        2685.8950195       -35.895019531    
 559-12-60       2648.0000000        2685.8364258       -37.836425781    
 559-17-78       2645.0000000        2685.6560059       -40.656005859    
 559-32-62       2635.0000000        2684.2424316       -49.242431641    
 559-36-335      2633.0000000        2683.4245605       -50.424560547    
 806-71-62       2679.0000000        2786.3703613       -107.37036133    
 771-43-68       2683.0000000        2727.7036133       -44.703613281    
 764-43-68       2679.0000000        2709.2353516       -30.235351562    
 764-48-342      2689.0000000        2707.6352539       -18.635253906    
 764-56-17       2685.0000000        2704.5568848       -19.556884766    
 764-61-60       2681.0000000        2702.6340332       -21.634033203    
 764-66-19       2671.0000000        2699.2839355       -28.283935547    
 764-71-63       2637.0000000        2690.3376465       -53.337646484    
 731-32-61       2676.0000000        2726.9687500       -50.968750000    
 731-42-355      2676.0000000        2723.6125488       -47.612548828    
 730-48-342      2689.0000000        2722.2377930       -33.237792969    
 730-56-17       2682.0000000        2719.8623047       -37.862304688    
 730-60-320      2678.0000000        2718.6728516       -40.672851562    
 730-71-365      2653.0000000        2709.2656250       -56.265625000    
 725-48-343      2682.0000000        2720.8903809       -38.890380859    
 725-56-16       2675.0000000        2718.3566895       -43.356689453    
 725-61-59       2671.0000000        2716.7856445       -45.785644531    
 725-66-19       2660.0000000        2712.8977051       -52.897705078    
 725-71-63       2649.0000000        2708.5371094       -59.537109375    
 683-7-360       2686.0000000        2720.2573242       -34.257324219    
 683-12-102      2682.0000000        2720.1552734       -38.155273438    
 683-17-78       2681.0000000        2719.9531250       -38.953125000    
 683-32-61       2678.0000000        2720.3449707       -42.344970703    
 683-37-32       2678.0000000        2720.7094727       -42.709472656    
 683-48-342      2690.0000000        2718.9055176       -28.905517578    
 528-56-10       2551.0000000        2488.3332520        62.666748047    
 528-61-56       2563.0000000        2469.2377930        93.762207031    
 528-66-34       2585.0000000        2487.2573242        97.742675781    
 532-56-10       2465.0000000        2489.7385254       -24.738525391    
 532-61-56       2464.0000000        2468.3186035       -4.3186035156    
 523-42-363      2441.0000000        2437.8952637        3.1047363281    
 523-48-343      2487.0000000        2499.1884766       -12.188476562    
 523-56-10       2443.0000000        2471.4616699       -28.461669922    
 523-61-56       2416.0000000        2451.9433594       -35.943359375    
 506-31-282      2501.0000000        2531.9450684       -30.945068359    
 506-56-10       2455.0000000        2486.0114746       -31.011474609    
 506-60-321      2429.0000000        2467.7185059       -38.718505859    
 516-56-10       2456.0000000        2478.8315430       -22.831542969    
 516-61-56       2430.0000000        2458.3520508       -28.352050781    
 507-17-55       2618.0000000        2612.5817871        5.4182128906    
 507-22-40       2610.0000000        2596.8508301        13.149169922    
 507-26-299      2574.0000000        2577.1442871       -3.1442871094    
 507-31-335      2512.0000000        2536.0488281       -24.048828125    
 507-48-343      2489.0000000        2506.7448730       -17.744873047    
 507-56-10       2454.0000000        2492.9226074       -38.922607422    
 496-17-55       2616.0000000        2621.2270508       -5.2270507812    
 496-22-40       2601.0000000        2604.2993164       -3.2993164062    
 496-31-335      2517.0000000        2552.9052734       -35.905273438    
 492-56-10       2460.0000000        2498.2014160       -38.201416016    
 492-61-60       2433.0000000        2479.7419434       -46.741943359    
 492-66-31       2444.0000000        2475.1752930       -31.175292969    
 466-56-10       2485.0000000        2520.0629883       -35.062988281    
 466-61-60       2462.0000000        2505.6896973       -43.689697266    
 466-66-34       2469.0000000        2490.3173828       -21.317382812    
 462-56-10       2487.0000000        2524.5737305       -37.573730469    
 462-61-60       2467.0000000        2511.4812012       -44.481201172    
 462-66-34       2471.0000000        2495.8798828       -24.879882812    
 476-56-10       2543.0000000        2496.7668457        46.233154297    
 476-61-60       2520.0000000        2478.8530273        41.146972656    
 465-56-10       2488.0000000        2519.9802246       -31.980224609    
 465-61-60       2465.0000000        2505.4355469       -40.435546875    
 465-66-34       2471.0000000        2489.9953613       -18.995361328    
 460-1-365       2621.0000000        2663.3896484       -42.389648438    
 458-38-7        2512.0000000        2519.1950684       -7.1950683594    
 458-48-336      2521.0000000        2501.5939941        19.406005859    
 458-56-10       2500.0000000        2499.8249512       0.17504882812    
 458-61-60       2475.0000000        2484.1950684       -9.1950683594    
 458-66-54       2482.0000000        2467.3725586        14.627441406    
 458-71-34       2477.0000000        2455.5297852        21.470214844    
 440-38-6        2577.0000000        2516.4208984        60.579101562    
 440-42-356      2567.0000000        2499.0566406        67.943359375    
 440-48-337      2577.0000000        2515.0585938        61.941406250    
 443-1-365       2655.0000000        2671.3068848       -16.306884766    
 439-1-358       2668.0000000        2674.9077148       -6.9077148438    
 439-4-350       2664.0000000        2667.5217285       -3.5217285156    
 449-10-89       2694.0000000        2660.5615234        33.438476562    
 418-48-342      2555.0000000        2712.8803711       -157.88037109    
 418-56-18       2536.0000000        2711.3862305       -175.38623047    
 415-48-342      2559.0000000        2668.3166504       -109.31665039    
 415-56-18       2540.0000000        2668.6164551       -128.61645508    
 421-34-313      2575.0000000        2608.7272949       -33.727294922    
 421-48-343      2651.0000000        2571.3581543        79.641845703    
 421-56-12       2520.0000000        2581.9011230       -61.901123047    
 421-61-60       2505.0000000        2572.0117188       -67.011718750    
 417-34-60       2622.0000000        2632.8474121       -10.847412109    
 412-6-290       2682.0000000        2684.4174805       -2.4174804688    
 412-10-297      2676.0000000        2680.1936035       -4.1936035156    
 412-17-4        2653.0000000        2665.8095703       -12.809570312    
 412-27-12       2630.0000000        2622.4685059        7.5314941406    
 412-38-6        2587.0000000        2539.3322754        47.667724609    
 412-42-356      2584.0000000        2525.1625977        58.837402344    
 412-48-336      2593.0000000        2537.1281738        55.871826172    
 411-48-336      2587.0000000        2501.7612305        85.238769531    
 411-56-11       2548.0000000        2503.7319336        44.268066406    
 411-61-60       2529.0000000        2488.3142090        40.685791016    
 411-66-54       2524.0000000        2462.2863770        61.713623047    
 411-71-33       2510.0000000        2434.1330566        75.866943359    
 405-38-6        2576.0000000        2508.6921387        67.307861328    
 405-42-355      2545.0000000        2517.7653809        27.234619141    
 405-48-334      2569.0000000        2486.8542480        82.145751953    
 405-56-11       2572.0000000        2490.4223633        81.577636719    
 405-61-60       2539.0000000        2476.7189941        62.281005859    
 405-66-54       2530.0000000        2448.0202637        81.979736328    
 405-71-33       2515.0000000        2414.0935059        100.90649414    
 396-17-4        2673.0000000        2674.4294434       -1.4294433594    
 396-27-12       2636.0000000        2629.2937012        6.7062988281    
 396-38-6        2595.0000000        2536.6691895        58.330810547    
 396-42-355      2564.0000000        2531.8444824        32.155517578    
 396-48-336      2581.0000000        2543.1735840        37.826416016    
 393-1-358       2703.0000000        2707.6191406       -4.6191406250    
 398-38-6        2565.0000000        2535.7458496        29.254150391    
 398-42-356      2540.0000000        2532.0888672        7.9111328125    
 387-42-356      2544.0000000        2539.2253418        4.7746582031    
 387-48-336      2564.0000000        2561.2983398        2.7016601562    
 387-56-11       2551.0000000        2561.6489258       -10.648925781    
 387-61-60       2535.0000000        2540.4768066       -5.4768066406    
 387-66-54       2531.0000000        2520.0305176        10.969482422    
 387-71-33       2515.0000000        2489.9128418        25.087158203    
 386-17-4        2684.0000000        2683.2883301       0.71166992188    
 386-27-12       2644.0000000        2636.9877930        7.0122070312    
 386-48-336      2595.0000000        2568.2700195        26.729980469    
 381-38-6        2578.0000000        2574.2409668        3.7590332031    
 381-42-356      2574.0000000        2562.0705566        11.929443359    
 381-48-336      2584.0000000        2571.1845703        12.815429688    
 361-26-295      2654.0000000        2646.3378906        7.6621093750    
 361-43-14       2526.0000000        2522.6987305        3.3012695312    
 361-56-12       2552.0000000        2582.5192871       -30.519287109    
 361-61-60       2534.0000000        2561.5703125       -27.570312500    
 361-66-31       2524.0000000        2542.2885742       -18.288574219    
 365-1-365       2700.0000000        2725.6552734       -25.655273438    
 364-42-356      2553.0000000        2478.2839355        74.716064453    
 363-1-365       2702.0000000        2720.9494629       -18.949462891    
 391-56-12       2551.0000000        2592.2924805       -41.292480469    
 391-61-60       2535.0000000        2558.0280762       -23.028076172    
 372-43-14       2535.0000000        2594.4660645       -59.466064453    
 372-56-12       2543.0000000        2596.7551270       -53.755126953    
 372-61-60       2535.0000000        2565.7390137       -30.739013672    
 375-56-19       2559.0000000        2619.7797852       -60.779785156    
 358-56-19       2556.0000000        2623.0808105       -67.080810547    
 350-56-19       2568.0000000        2626.9277344       -58.927734375    
 343-56-19       2566.0000000        2628.8969727       -62.896972656    
 345-43-6        2552.0000000        2653.1518555       -101.15185547    
 356-56-12       2558.0000000        2612.4760742       -54.476074219    
 356-61-60       2544.0000000        2587.9211426       -43.921142578    
 352-17-4        2694.0000000        2704.8127441       -10.812744141    
 352-22-51       2686.0000000        2681.8286133        4.1713867188    
 352-27-14       2662.0000000        2668.8610840       -6.8610839844    
 342-37-342      2587.0000000        2654.1245117       -67.124511719    
 342-43-14       2567.0000000        2640.3134766       -73.313476562    
 349-27-13       2659.0000000        2662.9597168       -3.9597167969    
 348-56-11       2621.0000000        2618.3356934        2.6643066406    
 348-61-54       2610.0000000        2602.1025391        7.8974609375    
 348-66-35       2604.0000000        2581.9072266        22.092773438    
 351-3-56        2741.0000000        2736.7045898        4.2954101562    
 351-22-46       2687.0000000        2680.7446289        6.2553710938    
 351-27-62       2672.0000000        2666.3200684        5.6799316406    
 351-37-342      2622.0000000        2630.3410645       -8.3410644531    
 351-43-14       2621.0000000        2619.8779297        1.1220703125    
 351-48-337      2632.0000000        2622.9323730        9.0676269531    
 351-56-11       2632.0000000        2621.2521973        10.747802734    
 351-61-54       2623.0000000        2602.4899902        20.510009766    
 351-66-35       2620.0000000        2585.9377441        34.062255859    
 346-17-4        2697.0000000        2708.7670898       -11.767089844    
 346-27-14       2658.0000000        2671.2863770       -13.286376953    
 347-11-304      2719.0000000        2725.0898438       -6.0898437500    
 347-17-59       2705.0000000        2705.9086914      -0.90869140625    
 347-22-46       2680.0000000        2685.2060547       -5.2060546875    
 347-27-14       2664.0000000        2670.1347656       -6.1347656250    
 347-31-335      2647.0000000        2658.1835938       -11.183593750    
 347-56-11       2625.0000000        2627.5031738       -2.5031738281    
 347-61-54       2617.0000000        2609.4279785        7.5720214844    
 347-66-35       2608.0000000        2592.7390137        15.260986328    
 341-17-4        2701.0000000        2711.0234375       -10.023437500    
 524-37-354      2605.0000000        2597.0871582        7.9128417969    
 524-43-4        2599.0000000        2585.3039551        13.696044922    
 524-48-335      2592.0000000        2573.3374023        18.662597656    
 524-56-9        2592.0000000        2563.1870117        28.812988281    
 524-61-47       2583.0000000        2554.6904297        28.309570312    
 524-65-357      2580.0000000        2550.6994629        29.300537109    
 524-71-362      2584.0000000        2551.8327637        32.167236328    
 3418-43-4       2540.0000000        2557.5466309       -17.546630859    
 3418-48-362     2529.0000000        2543.7963867       -14.796386719    
 3418-56-9       2554.0000000        2535.8996582        18.100341797    
 3418-65-357     2528.0000000        2517.5825195        10.417480469    
 3418-71-362     2567.0000000        2521.8181152        45.181884766    
 525-35-347      2563.0000000        2560.2468262        2.7531738281    
 525-56-9        2518.0000000        2518.2941895      -0.29418945312    
 525-71-362      2568.0000000        2511.9042969        56.095703125    
 514-31-335      2560.0000000        2569.0939941       -9.0939941406    
 514-36-360      2541.0000000        2539.5764160        1.4235839844    
 514-43-4        2545.0000000        2520.9260254        24.073974609    
 514-48-362      2545.0000000        2512.1997070        32.800292969    
 514-56-9        2548.0000000        2506.7336426        41.266357422    
 514-61-47       2536.0000000        2493.6225586        42.377441406    
 514-65-357      2542.0000000        2488.6301270        53.369873047    
 514-71-362      2568.0000000        2506.6799316        61.320068359    
 513-32-41       2552.0000000        2559.3664551       -7.3664550781    
 513-39-60       2558.0000000        2523.5544434        34.445556641    
 513-43-4        2538.0000000        2512.7102051        25.289794922    
 513-48-362      2544.0000000        2510.3183594        33.681640625    
 513-56-9        2553.0000000        2502.9826660        50.017333984    
 513-61-47       2533.0000000        2488.7160645        44.283935547    
 513-65-357      2541.0000000        2486.4812012        54.518798828    
 513-71-362      2568.0000000        2503.3547363        64.645263672    
 526-11-307      2603.0000000        2617.7172852       -14.717285156    
 526-17-53       2591.0000000        2608.3217773       -17.321777344    
 526-22-38       2579.0000000        2591.8564453       -12.856445312    
 487-17-4        2600.0000000        2618.8320312       -18.832031250    
 487-27-10       2590.0000000        2583.8081055        6.1918945312    
 487-38-6        2565.0000000        2521.7058105        43.294189453    
 487-42-356      2539.0000000        2504.7512207        34.248779297    
 494-42-355      2519.0000000        2502.1899414        16.810058594    
 494-48-334      2533.0000000        2501.4619141        31.538085938    
 494-56-10       2544.0000000        2492.0000000        52.000000000    
 494-61-60       2518.0000000        2482.9375000        35.062500000    
 494-66-49       2535.0000000        2477.5168457        57.483154297    
 494-71-33       2549.0000000        2479.0017090        69.998291016    
 530-38-6        2527.0000000        2488.1689453        38.831054688    
 530-48-334      2529.0000000        2500.2519531        28.748046875    
 530-56-10       2531.0000000        2485.4985352        45.501464844    
 530-61-60       2523.0000000        2471.1750488        51.824951172    
 530-66-49       2543.0000000        2485.2614746        57.738525391    
 530-71-33       2549.0000000        2491.9645996        57.035400391    
 509-38-6        2536.0000000        2496.8647461        39.135253906    
 509-42-355      2502.0000000        2486.0351562        15.964843750    
 509-48-334      2532.0000000        2501.5534668        30.446533203    
 509-56-10       2532.0000000        2491.0148926        40.985107422    
 509-61-60       2516.0000000        2475.6799316        40.320068359    
 509-66-49       2535.0000000        2477.6101074        57.389892578    
 509-71-33       2542.0000000        2481.4160156        60.583984375    
 518-17-3        2603.0000000        2609.2924805       -6.2924804688    
 518-27-11       2565.0000000        2573.7473145       -8.7473144531    
 518-42-355      2539.0000000        2486.7473145        52.252685547    
 510-1-358       2622.0000000        2636.8325195       -14.832519531    
 495-1-358       2628.0000000        2646.1547852       -18.154785156    
 491-7-49        2629.0000000        2633.3222656       -4.3222656250    
 490-7-49        2623.0000000        2634.4997559       -11.499755859    
 490-17-4        2607.0000000        2617.9042969       -10.904296875    
 490-27-10       2601.0000000        2582.1855469        18.814453125    
 481-38-7        2576.0000000        2505.6457520        70.354248047    
 481-42-355      2557.0000000        2489.8095703        67.190429688    
 481-48-334      2565.0000000        2498.3337402        66.666259766    
 481-56-10       2566.0000000        2490.0739746        75.926025391    
 481-61-60       2548.0000000        2472.9228516        75.077148438    
 481-66-49       2562.0000000        2464.9135742        97.086425781    
 481-71-33       2568.0000000        2464.1298828        103.87011719    
 473-38-7        2580.0000000        2516.2783203        63.721679688    
 473-42-355      2563.0000000        2495.2651367        67.734863281    
 484-38-6        2395.0000000        2494.0419922       -99.041992188    
 455-22-51       2600.0000000        2607.7885742       -7.7885742188    
 455-27-11       2605.0000000        2593.1286621        11.871337891    
 455-38-7        2560.0000000        2515.0830078        44.916992188    
 455-42-355      2542.0000000        2501.3686523        40.631347656    
 455-48-336      2559.0000000        2486.5983887        72.401611328    
 457-1-358       2645.0000000        2662.5258789       -17.525878906    
 456-38-6        2573.0000000        2510.6306152        62.369384766    
 456-42-356      2540.0000000        2497.8190918        42.180908203    
 456-48-334      2557.0000000        2478.9704590        78.029541016    
 456-56-10       2556.0000000        2473.0146484        82.985351562    
 456-61-60       2533.0000000        2453.9965820        79.003417969    
 456-66-54       2542.0000000        2442.6257324        99.374267578    
 456-71-33       2543.0000000        2433.5886230        109.41137695    
 454-8-253       2652.0000000        2637.2873535        14.712646484    
 454-38-6        2572.0000000        2518.5432129        53.456787109    
 454-42-355      2549.0000000        2503.9016113        45.098388672    
 454-48-334      2559.0000000        2494.4174805        64.582519531    
 454-56-10       2567.0000000        2487.6188965        79.381103516    
 454-61-60       2542.0000000        2471.5139160        70.486083984    
 454-66-49       2551.0000000        2459.2912598        91.708740234    
 454-71-33       2555.0000000        2451.4138184        103.58618164    
 483-48-334      2555.0000000        2512.6772461        42.322753906    
 475-1-365       2620.0000000        2649.3747559       -29.374755859    
 472-17-4        2609.0000000        2625.2280273       -16.228027344    
 472-27-12       2590.0000000        2589.0097656       0.99023437500    
 472-38-6        2566.0000000        2528.4445801        37.555419922    
 472-42-355      2533.0000000        2509.8986816        23.101318359    
 472-48-334      2548.0000000        2517.5434570        30.456542969    
 464-17-4        2599.0000000        2621.5869141       -22.586914062    
 464-27-12       2591.0000000        2592.8435059       -1.8435058594    
 464-48-336      2546.0000000        2502.3518066        43.648193359    
 442-71-61       2631.0000000        2602.4890137        28.510986328    
 438-48-336      2577.0000000        2533.5012207        43.498779297    
 436-71-336      2533.0000000        2465.3132324        67.686767578    
 422-17-55       2653.0000000        2651.1621094        1.8378906250    
 422-22-38       2624.0000000        2631.4299316       -7.4299316406    
 422-27-12       2625.0000000        2617.6154785        7.3845214844    
 422-31-335      2595.0000000        2599.2871094       -4.2871093750    
 422-38-91       2581.0000000        2561.0612793        19.938720703    
 426-48-336      2582.0000000        2541.2363281        40.763671875    
 426-56-13       2579.0000000        2537.0334473        41.966552734    
 426-66-34       2577.0000000        2514.5629883        62.437011719    
 430-7-49        2654.0000000        2661.3630371       -7.3630371094    
 430-17-4        2626.0000000        2642.3371582       -16.337158203    
 430-27-10       2612.0000000        2605.2180176        6.7819824219    
 432-38-6        2588.0000000        2519.5874023        68.412597656    
 432-42-356      2564.0000000        2505.7468262        58.253173828    
 432-48-334      2580.0000000        2491.0793457        88.920654297    
 432-56-10       2578.0000000        2484.4475098        93.552490234    
 432-61-60       2553.0000000        2467.6166992        85.383300781    
 432-66-49       2562.0000000        2452.0598145        109.94018555    
 432-71-33       2563.0000000        2437.7731934        125.22680664    
 452-48-335      2553.0000000        2515.1879883        37.812011719    
 452-56-11       2550.0000000        2511.2846680        38.715332031    
 431-1-358       2659.0000000        2672.6281738       -13.628173828    
 431-6-340       2656.0000000        2662.9516602       -6.9516601562    
 431-11-333      2649.0000000        2656.4892578       -7.4892578125    
 431-36-38       2623.0000000        2550.5078125        72.492187500    
 429-42-356      2535.0000000        2513.8710938        21.128906250    
 429-48-334      2555.0000000        2495.9841309        59.015869141    
 429-56-11       2556.0000000        2488.4694824        67.530517578    
 429-61-60       2526.0000000        2473.5058594        52.494140625    
 429-66-54       2537.0000000        2456.6862793        80.313720703    
 429-71-33       2536.0000000        2441.5400391        94.459960938    
 420-17-7        2664.0000000        2651.4682617        12.531738281    
 420-27-10       2631.0000000        2613.9384766        17.061523438    
 420-48-335      2595.0000000        2530.2521973        64.747802734    
 407-38-6        2581.0000000        2533.8500977        47.149902344    
 407-42-355      2554.0000000        2529.6396484        24.360351562    
 407-48-334      2561.0000000        2536.1081543        24.891845703    
 401-38-6        2603.0000000        2546.0895996        56.910400391    
 401-42-355      2590.0000000        2541.8273926        48.172607422    
 401-48-335      2603.0000000        2546.9807129        56.019287109    
 410-42-355      2552.0000000        2514.8093262        37.190673828    
 410-48-334      2569.0000000        2489.1215820        79.878417969    
 410-56-10       2565.0000000        2487.7353516        77.264648438    
 410-61-60       2542.0000000        2472.4931641        69.506835938    
 410-66-49       2542.0000000        2446.9196777        95.080322266    
 410-71-33       2532.0000000        2426.5463867        105.45361328    
 376-31-348      2628.0000000        2619.7163086        8.2836914062    
 376-37-19       2619.0000000        2599.8308105        19.169189453    
 376-43-47       2613.0000000        2578.0791016        34.920898438    
 376-48-343      2612.0000000        2565.2297363        46.770263672    
 376-56-11       2610.0000000        2559.1098633        50.890136719    
 376-60-321      2601.0000000        2553.6091309        47.390869141    
 376-65-298      2592.0000000        2544.8156738        47.184326172    
 414-71-365      2596.0000000        2547.3315430        48.668457031    
 416-34-357      2620.0000000        2623.7075195       -3.7075195312    
 366-17-55       2706.0000000        2693.7214355        12.278564453    
 366-22-33       2684.0000000        2681.6528320        2.3471679688    
 366-27-10       2661.0000000        2670.1247559       -9.1247558594    
 366-33-10       2665.0000000        2657.7907715        7.2092285156    
 370-17-55       2688.0000000        2681.3242188        6.6757812500    
 370-22-46       2656.0000000        2659.9838867       -3.9838867188    
 370-31-335      2635.0000000        2629.4316406        5.5683593750    
 370-37-91       2621.0000000        2604.4316406        16.568359375    
 394-27-10       2646.0000000        2628.4780273        17.521972656    
 389-42-355      2540.0000000        2513.1982422        26.801757812    
 389-48-334      2565.0000000        2481.9580078        83.041992188    
 389-56-10       2558.0000000        2480.7233887        77.276611328    
 389-61-60       2538.0000000        2465.8024902        72.197509766    
 389-66-48       2533.0000000        2435.8112793        97.188720703    
 389-71-33       2536.0000000        2427.9858398        108.01416016    
 382-48-334      2611.0000000        2563.3562012        47.643798828    
 395-17-4        2679.0000000        2671.2150879        7.7849121094    
 395-27-13       2665.0000000        2627.9714355        37.028564453    
 395-38-6        2584.0000000        2551.2915039        32.708496094    
 395-42-356      2555.0000000        2545.5529785        9.4470214844    
 395-48-334      2577.0000000        2554.8083496        22.191650391    
 395-56-11       2573.0000000        2554.5063477        18.493652344    
 395-61-60       2524.0000000        2534.5893555       -10.589355469    
 395-66-54       2507.0000000        2495.8620605        11.137939453    
 395-71-33       2530.0000000        2455.2880859        74.711914062    
 379-42-356      2562.0000000        2568.2431641       -6.2431640625    
 379-48-334      2586.0000000        2570.4167480        15.583251953    
 379-56-11       2583.0000000        2569.4819336        13.518066406    
 385-7-49        2700.0000000        2698.0378418        1.9621582031    
 384-7-49        2698.0000000        2698.3723145      -0.37231445312    
 374-1-358       2693.0000000        2712.8615723       -19.861572266    
 362-38-6        2600.0000000        2462.5280762        137.47192383    
 362-42-355      2577.0000000        2506.5451660        70.454833984    
 362-48-334      2593.0000000        2552.4455566        40.554443359    
 362-56-10       2592.0000000        2549.9643555        42.035644531    
 362-61-60       2572.0000000        2529.2883301        42.711669922    
 362-66-48       2562.0000000        2505.2724609        56.727539062    
 362-71-33       2575.0000000        2479.8547363        95.145263672    
 360-26-313      2647.0000000        2647.1855469      -0.18554687500    
 360-38-6        2600.0000000        2562.9069824        37.093017578    
 371-38-6        2598.0000000        2565.8854980        32.114501953    
 371-42-355      2579.0000000        2568.0014648        10.998535156    
 355-48-342      2616.0000000        2602.3120117        13.687988281    
 355-56-13       2614.0000000        2602.0754395        11.924560547    
 355-61-61       2600.0000000        2584.7937012        15.206298828    
 355-66-32       2588.0000000        2564.4130859        23.586914062    
 353-1-365       2705.0000000        2727.0441895       -22.044189453    
 353-8-22        2704.0000000        2718.3793945       -14.379394531    
 353-11-304      2703.0000000        2713.5583496       -10.558349609    
 353-61-61       2610.0000000        2591.9174805        18.082519531    
 353-66-32       2603.0000000        2573.2709961        29.729003906    
 501-27-60       2646.0000000        2695.8786621       -49.878662109    
 501-37-32       2639.0000000        2694.1228027       -55.122802734    
 501-43-53       2640.0000000        2692.1826172       -52.182617188    
 501-48-336      2640.0000000        2689.4667969       -49.466796875    
 501-56-17       2639.0000000        2685.3315430       -46.331542969    
 501-60-320      2639.0000000        2682.3571777       -43.357177734    
 501-65-299      2639.0000000        2678.9111328       -39.911132812    
 501-71-365      2638.0000000        2673.3625488       -35.362548828    
 536-61-52       2579.0000000        2579.1979980      -0.19799804688    
 536-66-18       2575.0000000        2572.8256836        2.1743164062    
 536-71-62       2575.0000000        2568.6340332        6.3659667969    
 540-43-50       2603.0000000        2608.4023438       -5.4023437500    
 540-56-17       2588.0000000        2586.8894043        1.1105957031    
 451-37-32       2707.0000000        2743.9023438       -36.902343750    
 451-43-53       2715.0000000        2742.7480469       -27.748046875    
 451-48-336      2727.0000000        2741.1555176       -14.155517578    
 451-56-17       2744.0000000        2738.4104004        5.5895996094    
 451-61-52       2743.0000000        2736.0520020        6.9479980469    
 451-71-336      2764.0000000        2729.9436035        34.056396484    
 419-71-61       2695.0000000        2660.9628906        34.037109375    
 425-71-61       2749.0000000        2732.0722656        16.927734375    
 397-48-336      2815.0000000        2764.2424316        50.757568359    
 378-71-61       2711.0000000        2712.5358887       -1.5358886719    
 477-7-99        2664.0000000        2659.6921387        4.3078613281    
 477-11-60       2664.0000000        2658.9675293        5.0324707031    
 477-17-53       2663.0000000        2657.2060547        5.7939453125    
 477-22-39       2662.0000000        2654.8303223        7.1696777344    
 477-32-6        2659.0000000        2646.5637207        12.436279297    
 477-37-32       2648.0000000        2640.5017090        7.4982910156    
 478-48-335      2652.0000000        2620.9714355        31.028564453    
 478-56-17       2645.0000000        2610.9169922        34.083007812    
 218-42-337      3145.0000000        2996.1257324        148.87426758    
 337-37-343      2555.0000000        2600.2343750       -45.234375000    
 337-43-14       2542.0000000        2612.4687500       -70.468750000    
 337-56-12       2564.0000000        2628.8181152       -64.818115234    
 337-61-61       2546.0000000        2612.1931152       -66.193115234    
 337-66-31       2536.0000000        2595.5651855       -59.565185547    
 328-56-11       2652.0000000        2646.3461914        5.6538085938    
 328-61-61       2636.0000000        2630.0292969        5.9707031250    
 328-66-32       2627.0000000        2614.3654785        12.634521484    
 329-1-365       2746.0000000        2758.0585938       -12.058593750    
 327-1-365       2754.0000000        2759.2314453       -5.2314453125    
 326-26-319      2678.0000000        2686.5751953       -8.5751953125    
 326-31-335      2666.0000000        2675.6906738       -9.6906738281    
 326-38-32       2654.0000000        2646.5581055        7.4418945312    
 326-56-11       2626.0000000        2646.1157227       -20.115722656    
 326-61-54       2609.0000000        2630.6513672       -21.651367188    
 326-66-32       2598.0000000        2615.8002930       -17.800292969    
 321-43-14       2563.0000000        2652.1220703       -89.122070312    
 321-56-12       2596.0000000        2647.0134277       -51.013427734    
 322-1-358       2756.0000000        2763.0317383       -7.0317382812    
 322-6-340       2750.0000000        2751.2102051       -1.2102050781    
 322-11-333      2738.0000000        2740.7294922       -2.7294921875    
 322-16-301      2717.0000000        2729.0195312       -12.019531250    
 322-22-46       2703.0000000        2708.4277344       -5.4277343750    
 322-27-32       2691.0000000        2690.9404297       5.95703125000E-02
 308-34-333      2660.0000000        2685.5798340       -25.579833984    
 316-7-283       2748.0000000        2752.3955078       -4.3955078125    
 316-11-333      2738.0000000        2742.5102539       -4.5102539062    
 316-16-301      2734.0000000        2730.7170410        3.2829589844    
 316-22-46       2699.0000000        2710.6105957       -11.610595703    
 316-27-11       2692.0000000        2693.4245605       -1.4245605469    
 316-31-335      2674.0000000        2685.8745117       -11.874511719    
 316-38-32       2663.0000000        2664.5317383       -1.5317382812    
 316-48-337      2639.0000000        2663.4760742       -24.476074219    
 316-56-11       2632.0000000        2657.0964355       -25.096435547    
 316-60-321      2616.0000000        2641.2153320       -25.215332031    
 316-65-300      2582.0000000        2628.4536133       -46.453613281    
 310-1-365       2757.0000000        2766.3039551       -9.3039550781    
 310-27-49       2692.0000000        2696.0048828       -4.0048828125    
 310-56-11       2649.0000000        2658.8637695       -9.8637695312    
 310-61-54       2633.0000000        2643.1311035       -10.131103516    
 310-66-32       2621.0000000        2629.3662109       -8.3662109375    
 324-1-365       2740.0000000        2758.3273926       -18.327392578    
 307-56-11       2680.0000000        2659.5090332        20.490966797    
 335-1-365       2755.0000000        2754.7846680       0.21533203125    
 333-56-9        2601.0000000        2640.2004395       -39.200439453    
 323-56-11       2640.0000000        2650.9436035       -10.943603516    
 323-61-61       2610.0000000        2635.0986328       -25.098632812    
 311-17-5        2717.0000000        2732.6850586       -15.685058594    
 311-27-14       2682.0000000        2693.2749023       -11.274902344    
 314-56-25       2590.0000000        2651.0583496       -61.058349609    
 314-61-62       2580.0000000        2636.2473145       -56.247314453    
 318-48-343      2595.0000000        2671.7646484       -76.764648438    
 302-42-348      2592.0000000        2667.1586914       -75.158691406    
 301-22-62       2697.0000000        2710.3229980       -13.322998047    
 301-27-6        2674.0000000        2687.7768555       -13.776855469    
 301-38-32       2639.0000000        2680.5805664       -41.580566406    
 295-22-62       2740.0000000        2718.2429199        21.757080078    
 295-38-5        2669.0000000        2689.9941406       -20.994140625    
 295-56-24       2659.0000000        2671.5261230       -12.526123047    
 295-66-32       2645.0000000        2651.2824707       -6.2824707031    
 281-38-5        2639.0000000        2691.0749512       -52.074951172    
 281-42-348      2619.0000000        2691.7351074       -72.735107422    
 270-22-62       2711.0000000        2740.1545410       -29.154541016    
 270-38-32       2656.0000000        2711.7622070       -55.762207031    
 271-38-5        2645.0000000        2699.4001465       -54.400146484    
 271-42-348      2625.0000000        2697.5205078       -72.520507812    
 271-48-337      2650.0000000        2706.1672363       -56.167236328    
 271-56-10       2638.0000000        2687.8308105       -49.830810547    
 271-61-61       2623.0000000        2671.4443359       -48.444335938    
 271-66-61       2620.0000000        2664.9592285       -44.959228516    
 290-56-25       2624.0000000        2666.4692383       -42.469238281    
 290-61-62       2610.0000000        2651.9394531       -41.939453125    
 280-17-4        2729.0000000        2753.7700195       -24.770019531    
 280-27-14       2698.0000000        2711.3483887       -13.348388672    
 278-7-274       2772.0000000        2772.3129883      -0.31298828125    
 274-7-274       2767.0000000        2769.5820312       -2.5820312500    
 274-38-7        2670.0000000        2688.3781738       -18.378173828    
 274-42-355      2647.0000000        2677.5673828       -30.567382812    
 274-48-335      2671.0000000        2685.6049805       -14.604980469    
 274-56-11       2668.0000000        2676.2663574       -8.2663574219    
 279-17-5        2745.0000000        2745.0146484      -1.46484375000E-02
 279-42-355      2665.0000000        2675.4033203       -10.403320312    
 282-42-355      2655.0000000        2678.6186523       -23.618652344    
 282-48-335      2666.0000000        2679.7380371       -13.738037109    
 282-56-11       2674.0000000        2671.5830078        2.4169921875    
 282-61-60       2656.0000000        2658.4758301       -2.4758300781    
 282-66-48       2645.0000000        2645.5549316      -0.55493164062    
 265-42-355      2668.0000000        2692.8154297       -24.815429688    
 265-48-335      2690.0000000        2697.0778809       -7.0778808594    
 265-56-11       2688.0000000        2687.2604980       0.73950195312    
 265-61-60       2671.0000000        2673.6982422       -2.6982421875    
 265-66-48       2660.0000000        2664.2485352       -4.2485351562    
 265-71-34       2645.0000000        2658.7409668       -13.740966797    
 264-38-7        2690.0000000        2694.6352539       -4.6352539062    
 264-42-355      2677.0000000        2683.0170898       -6.0170898438    
 264-48-335      2699.0000000        2693.3354492        5.6645507812    
 264-56-11       2697.0000000        2683.1374512        13.862548828    
 264-61-60       2681.0000000        2668.3583984        12.641601562    
 264-66-48       2672.0000000        2659.0148926        12.985107422    
 264-71-34       2654.0000000        2654.5075684      -0.50756835938    
 268-1-365       2783.0000000        2789.2399902       -6.2399902344    
 268-38-7        2681.0000000        2695.6684570       -14.668457031    
 268-43-47       2665.0000000        2683.7019043       -18.701904297    
 268-48-335      2686.0000000        2694.9221191       -8.9221191406    
 250-7-274       2785.0000000        2787.8752441       -2.8752441406    
 250-17-5        2760.0000000        2764.7570801       -4.7570800781    
 250-38-7        2695.0000000        2711.4995117       -16.499511719    
 250-42-355      2675.0000000        2699.8469238       -24.846923828    
 250-56-11       2696.0000000        2691.7004395        4.2995605469    
 250-61-60       2679.0000000        2676.4338379        2.5661621094    
 250-66-48       2666.0000000        2666.1257324      -0.12573242188    
 250-71-34       2638.0000000        2658.5686035       -20.568603516    
 252-48-335      2702.0000000        2705.6450195       -3.6450195312    
 256-42-355      2668.0000000        2692.3010254       -24.301025391    
 256-48-335      2696.0000000        2699.7880859       -3.7880859375    
 256-56-11       2694.0000000        2687.6027832        6.3972167969    
 256-61-60       2678.0000000        2672.3491211        5.6508789062    
 256-66-48       2664.0000000        2661.8317871        2.1682128906    
 256-71-34       2646.0000000        2654.4477539       -8.4477539062    
 261-17-5        2756.0000000        2764.6735840       -8.6735839844    
 261-17-64       2755.0000000        2763.8999023       -8.8999023438    
 261-22-41       2740.0000000        2742.5644531       -2.5644531250    
 262-48-338      2688.0000000        2700.3767090       -12.376708984    
 262-56-9        2670.0000000        2685.9968262       -15.996826172    
 262-61-62       2657.0000000        2669.9250488       -12.925048828    
 247-1-365       2801.0000000        2805.7453613       -4.7453613281    
 247-7-291       2788.0000000        2795.9694824       -7.9694824219    
 247-27-11       2742.0000000        2742.4228516      -0.42285156250    
 266-36-1        2669.0000000        2721.3955078       -52.395507812    
 260-48-338      2665.0000000        2720.5107422       -55.510742188    
 259-56-9        2660.0000000        2704.1455078       -44.145507812    
 259-61-62       2645.0000000        2683.3225098       -38.322509766    
 259-66-47       2639.0000000        2679.5888672       -40.588867188    
 259-71-35       2623.0000000        2673.1784668       -50.178466797    
 269-38-4        2752.0000000        2793.5744629       -41.574462891    
 269-42-337      2753.0000000        2777.2106934       -24.210693359    
 269-48-337      2751.0000000        2760.9289551       -9.9289550781    
 269-56-10       2789.0000000        2749.3354492        39.664550781    
 269-61-61       2739.0000000        2718.1364746        20.863525391    
 269-66-61       2740.0000000        2714.0590820        25.940917969    
 257-56-10       2794.0000000        2757.4379883        36.562011719    
 257-61-61       2727.0000000        2723.6594238        3.3405761719    
 257-66-61       2727.0000000        2719.3483887        7.6516113281    
 254-38-4        2773.0000000        2814.8720703       -41.872070312    
 254-42-337      2764.0000000        2794.7565918       -30.756591797    
 253-48-337      2672.0000000        2738.1276855       -66.127685547    
 253-56-10       2666.0000000        2725.2409668       -59.240966797    
 253-61-61       2650.0000000        2703.2570801       -53.257080078    
 253-66-61       2644.0000000        2697.6662598       -53.666259766    
 248-38-5        3160.0000000        3114.7094727        45.290527344    
 248-42-337      3166.0000000        3122.8798828        43.120117188    
 248-48-337      3163.0000000        3056.7131348        106.28686523    
 241-48-337      2702.0000000        2747.9421387       -45.942138672    
 241-56-10       2707.0000000        2737.2309570       -30.230957031    
 241-61-61       2686.0000000        2716.0666504       -30.066650391    
 241-66-61       2675.0000000        2709.0898438       -34.089843750    
 229-48-337      2738.0000000        2755.6689453       -17.668945312    
 229-56-11       2746.0000000        2746.1684570      -0.16845703125    
 242-38-4        2809.0000000        2831.2463379       -22.246337891    
 242-42-337      2781.0000000        2804.2834473       -23.283447266    
 243-56-10       2838.0000000        2782.8696289        55.130371094    
 238-56-10       2830.0000000        2781.6650391        48.334960938    
 235-56-10       2846.0000000        2785.6743164        60.325683594    
 228-38-5        2831.0000000        2844.7766113       -13.776611328    
 228-42-348      2788.0000000        2810.7583008       -22.758300781    
 228-48-337      2776.0000000        2775.0895996       0.91040039062    
 230-48-337      2783.0000000        2779.5891113        3.4108886719    
 230-56-10       2815.0000000        2784.1889648        30.811035156    
 232-31-335      2744.0000000        2769.7470703       -25.747070312    
 232-37-361      2729.0000000        2760.1870117       -31.187011719    
 232-48-337      2731.0000000        2743.6147461       -12.614746094    
 232-56-9        2734.0000000        2731.9592285        2.0407714844    
 232-61-62       2717.0000000        2714.7404785        2.2595214844    
 232-66-47       2700.0000000        2706.1091309       -6.1091308594    
 232-71-35       2670.0000000        2696.1867676       -26.186767578    
 237-17-5        2766.0000000        2786.8291016       -20.829101562    
 237-27-11       2752.0000000        2757.5520020       -5.5520019531    
 237-37-357      2710.0000000        2739.9663086       -29.966308594    
 237-42-355      2690.0000000        2724.9182129       -34.918212891    
 237-48-335      2716.0000000        2729.5917969       -13.591796875    
 237-56-11       2716.0000000        2716.8879395      -0.88793945312    
 237-61-60       2699.0000000        2702.1345215       -3.1345214844    
 237-66-48       2684.0000000        2692.0942383       -8.0942382812    
 237-71-34       2664.0000000        2683.0847168       -19.084716797    
 239-1-365       2805.0000000        2808.5246582       -3.5246582031    
 239-42-355      2688.0000000        2711.0214844       -23.021484375    
 240-22-1        2744.0000000        2758.5424805       -14.542480469    
 240-38-7        2714.0000000        2727.8684082       -13.868408203    
 240-48-335      2719.0000000        2722.1394043       -3.1394042969    
 240-56-10       2718.0000000        2709.4526367        8.5473632812    
 240-66-48       2686.0000000        2684.5744629        1.4255371094    
 240-71-34       2661.0000000        2675.8222656       -14.822265625    
 231-48-335      2732.0000000        2730.8505859        1.1494140625    
 231-56-10       2732.0000000        2717.8269043        14.173095703    
 233-17-5        2781.0000000        2783.4604492       -2.4604492188    
 233-38-7        2712.0000000        2732.0905762       -20.090576172    
 233-42-355      2695.0000000        2717.9750977       -22.975097656    
 234-42-355      2694.0000000        2723.4514160       -29.451416016    
 234-48-335      2714.0000000        2729.9226074       -15.922607422    
 234-56-10       2718.0000000        2716.9831543        1.0168457031    
 234-60-322      2701.0000000        2703.7622070       -2.7622070312    
 234-66-48       2688.0000000        2693.2080078       -5.2080078125    
 234-71-34       2667.0000000        2684.2883301       -17.288330078    
 213-1-310       2835.0000000        2833.0112305        1.9887695312    
 213-6-310       2829.0000000        2824.8000488        4.1999511719    
 213-27-11       2792.0000000        2785.9902344        6.0097656250    
 213-42-355      2739.0000000        2751.2800293       -12.280029297    
 216-7-291       2818.0000000        2821.6579590       -3.6579589844    
 216-22-32       2787.0000000        2788.8798828       -1.8798828125    
 216-27-11       2793.0000000        2784.1701660        8.8298339844    
 216-38-7        2738.0000000        2760.9472656       -22.947265625    
 216-42-355      2732.0000000        2748.2573242       -16.257324219    
 210-1-365       2843.0000000        2838.1027832        4.8972167969    
 210-38-7        2742.0000000        2767.6826172       -25.682617188    
 210-42-355      2745.0000000        2754.8574219       -9.8574218750    
 210-48-335      2770.0000000        2764.1408691        5.8591308594    
 210-56-11       2775.0000000        2753.2812500        21.718750000    
 189-17-6        2827.0000000        2832.8569336       -5.8569335938    
 189-22-54       2812.0000000        2818.8164062       -6.8164062500    
 189-27-11       2814.0000000        2817.2634277       -3.2634277344    
 189-38-7        2772.0000000        2783.5576172       -11.557617188    
 189-42-355      2762.0000000        2770.7690430       -8.7690429688    
 189-48-335      2793.0000000        2784.7031250        8.2968750000    
 189-56-9        2797.0000000        2773.6564941        23.343505859    
 189-61-60       2779.0000000        2761.5778809        17.422119141    
 189-66-48       2761.0000000        2750.5898438        10.410156250    
 189-71-34       2738.0000000        2741.6606445       -3.6606445312    
 200-38-7        2760.0000000        2771.3295898       -11.329589844    
 200-42-356      2747.0000000        2757.0747070       -10.074707031    
 200-48-335      2776.0000000        2762.6484375        13.351562500    
 200-56-9        2778.0000000        2752.3652344        25.634765625    
 200-61-60       2756.0000000        2738.4013672        17.598632812    
 200-66-48       2745.0000000        2728.4062500        16.593750000    
 201-38-7        2774.0000000        2778.5610352       -4.5610351562    
 201-42-356      2759.0000000        2760.1369629       -1.1369628906    
 201-48-335      2782.0000000        2762.1123047        19.887695312    
 201-56-11       2786.0000000        2753.0295410        32.970458984    
 201-61-60       2769.0000000        2735.9482422        33.051757812    
 201-66-48       2753.0000000        2725.6171875        27.382812500    
 201-71-34       2730.0000000        2717.1931152        12.806884766    
 199-17-5        2814.0000000        2821.2792969       -7.2792968750    
 199-22-54       2800.0000000        2807.5710449       -7.5710449219    
 199-27-11       2801.0000000        2802.9355469       -1.9355468750    
 199-38-7        2764.0000000        2782.9633789       -18.963378906    
 199-42-356      2749.0000000        2762.7783203       -13.778320312    
 199-48-335      2776.0000000        2762.4316406        13.568359375    
 217-38-5        2864.0000000        2855.8254395        8.1745605469    
 217-42-348      2813.0000000        2799.7614746        13.238525391    
 220-38-5        2851.0000000        2854.7053223       -3.7053222656    
 220-42-348      2800.0000000        2807.4062500       -7.4062500000    
 220-56-10       2804.0000000        2768.9091797        35.090820312    
 220-61-61       2795.0000000        2763.4589844        31.541015625    
 220-66-61       2776.0000000        2749.5283203        26.471679688    
 204-38-5        2852.0000000        2874.8144531       -22.814453125    
 204-42-348      2799.0000000        2814.9501953       -15.950195312    
 202-38-5        2854.0000000        2858.6450195       -4.6450195312    
 202-42-348      2802.0000000        2801.7563477       0.24365234375    
 198-39-190      2868.0000000        2853.7431641        14.256835938    
 194-39-138      2833.0000000        2845.6962891       -12.696289062    
 190-56-10       2810.0000000        2796.6267090        13.373291016    
 190-61-61       2802.0000000        2787.1994629        14.800537109    
 192-38-5        2853.0000000        2890.1918945       -37.191894531    
 192-42-337      2813.0000000        2845.8022461       -32.802246094    
 191-39-212      2856.0000000        2891.0666504       -35.066650391    
 193-38-5        2848.0000000        2873.3532715       -25.353271484    
 193-42-348      2815.0000000        2823.4370117       -8.4370117188    
 188-56-10       2883.0000000        2880.6027832        2.3972167969    
 188-61-61       2874.0000000        2869.0078125        4.9921875000    
 188-66-61       2864.0000000        2861.7155762        2.2844238281    
 187-56-10       2840.0000000        2850.9020996       -10.902099609    
 187-61-61       2840.0000000        2835.6791992        4.3208007812    
 187-66-62       2815.0000000        2828.5432129       -13.543212891    
 179-48-337      2866.0000000        2846.0524902        19.947509766    
 14-1-365        2884.0000000        2891.8935547       -7.8935546875    
 185-1-365       2853.0000000        2869.7102051       -16.710205078    
 185-10-60       2822.0000000        2858.7531738       -36.753173828    
 185-38-7        2754.0000000        2792.9724121       -38.972412109    
 185-42-355      2750.0000000        2777.8703613       -27.870361328    
 181-38-7        2780.0000000        2799.8330078       -19.833007812    
 181-48-335      2809.0000000        2797.4123535        11.587646484    
 181-56-11       2813.0000000        2788.2719727        24.728027344    
 181-61-60       2798.0000000        2781.0517578        16.948242188    
 181-66-48       2777.0000000        2773.4470215        3.5529785156    
 181-71-34       2755.0000000        2763.0939941       -8.0939941406    
 186-48-335      2805.0000000        2789.7863770        15.213623047    
 183-48-335      2811.0000000        2799.9179688        11.082031250    
 182-42-355      2777.0000000        2776.2778320       0.72216796875    
 182-48-335      2810.0000000        2793.8603516        16.139648438    
 182-56-9        2809.0000000        2782.7548828        26.245117188    
 182-61-60       2795.0000000        2772.6772461        22.322753906    
 182-66-48       2776.0000000        2762.3884277        13.611572266    
 182-71-34       2755.0000000        2753.1311035        1.8688964844    
 180-48-335      2822.0000000        2802.8686523        19.131347656    
 184-12-80       2841.0000000        2844.4814453       -3.4814453125    
 184-17-60       2837.0000000        2838.7231445       -1.7231445312    
 184-22-62       2827.0000000        2826.8044434       0.19555664062    
 184-27-6        2812.0000000        2824.3911133       -12.391113281    
 184-31-335      2811.0000000        2822.1682129       -11.168212891    
 184-37-32       2792.0000000        2800.3916016       -8.3916015625    
 184-42-299      2779.0000000        2783.0717773       -4.0717773438    
 184-48-337      2809.0000000        2792.2514648        16.748535156    
 184-56-12       2811.0000000        2782.3659668        28.634033203    
 184-66-55       2790.0000000        2764.2895508        25.710449219    
 305-56-11       2722.0000000        2659.7121582        62.287841797    
 305-61-61       2678.0000000        2645.1953125        32.804687500    
 305-66-32       2682.0000000        2633.7065430        48.293457031    
 325-37-344      2646.0000000        2639.7734375        6.2265625000    
 325-43-14       2634.0000000        2642.1154785       -8.1154785156    
 325-48-342      2649.0000000        2649.5554199      -0.55541992188    
 325-56-12       2656.0000000        2644.3229980        11.677001953    
 325-61-61       2621.0000000        2630.3369141       -9.3369140625    
 325-66-31       2611.0000000        2615.8999023       -4.8999023438    
 292-61-61       2675.0000000        2696.1892090       -21.189208984    
 296-26-321      2728.0000000        2736.0151367       -8.0151367188    
 296-31-335      2715.0000000        2727.1232910       -12.123291016    
 296-37-344      2709.0000000        2721.7209473       -12.720947266    
 296-43-14       2705.0000000        2715.9802246       -10.980224609    
 296-48-342      2701.0000000        2708.5339355       -7.5339355469    
 296-56-11       2697.0000000        2704.5461426       -7.5461425781    
 296-60-321      2692.0000000        2699.9257812       -7.9257812500    
 296-65-300      2686.0000000        2693.8417969       -7.8417968750    
 297-17-4        2731.0000000        2742.0964355       -11.096435547    
 297-22-54       2722.0000000        2728.5815430       -6.5815429688    
 297-27-11       2713.0000000        2715.9553223       -2.9553222656    
 297-56-12       2681.0000000        2684.1765137       -3.1765136719    
 297-61-61       2671.0000000        2677.2314453       -6.2314453125    
 297-66-32       2665.0000000        2667.9372559       -2.9372558594    
 272-33-177      2743.0000000        2741.3066406        1.6933593750    
 245-48-342      2722.0000000        2731.3249512       -9.3249511719    
 245-56-12       2719.0000000        2725.5505371       -6.5505371094    
 221-33-346      2759.0000000        2770.5878906       -11.587890625    
 222-48-343      2744.0000000        2749.1464844       -5.1464843750    
 222-56-9        2758.0000000        2741.0844727        16.915527344    
 222-61-60       2739.0000000        2730.7297363        8.2702636719    
 222-66-54       2735.0000000        2722.8574219        12.142578125    
 222-71-34       2721.0000000        2714.5002441        6.4997558594    
 223-48-343      2746.0000000        2747.9675293       -1.9675292969    
 223-56-9        2750.0000000        2739.8620605        10.137939453    
 223-61-60       2738.0000000        2729.4479980        8.5520019531    
 223-71-35       2720.0000000        2713.1872559        6.8127441406    
 219-71-365      2723.0000000        2723.1984863      -0.19848632812    
 102-43-8        2972.0000000        2996.7937012       -24.793701172    
 102-48-344      2995.0000000        3008.5305176       -13.530517578    
 92-71-40        2989.0000000        2999.7500000       -10.750000000    
 177-17-6        2858.0000000        2867.1437988       -9.1437988281    
 177-38-7        2790.0000000        2800.2451172       -10.245117188    
 177-42-355      2803.0000000        2789.2624512        13.737548828    
 177-48-335      2861.0000000        2812.9726562        48.027343750    
 169-38-4        2773.0000000        2811.2426758       -38.242675781    
 169-42-334      2779.0000000        2797.7509766       -18.750976562    
 169-56-11       2818.0000000        2809.2416992        8.7583007812    
 168-1-365       2887.0000000        2890.0727539       -3.0727539062    
 170-38-7        2782.0000000        2816.4907227       -34.490722656    
 170-42-355      2793.0000000        2799.5727539       -6.5727539062    
 170-48-335      2831.0000000        2819.5693359        11.430664062    
 170-56-9        2827.0000000        2809.2539062        17.746093750    
 170-61-60       2821.0000000        2805.1350098        15.864990234    
 170-66-48       2798.0000000        2793.6777344        4.3222656250    
 170-71-34       2780.0000000        2782.7990723       -2.7990722656    
 176-1-280       2880.0000000        2889.7705078       -9.7705078125    
 176-6-340       2875.0000000        2885.5437012       -10.543701172    
 176-11-333      2858.0000000        2879.2937012       -21.293701172    
 176-16-332      2862.0000000        2874.5358887       -12.535888672    
 176-38-7        2791.0000000        2814.7875977       -23.787597656    
 172-12-80       2883.0000000        2903.9267578       -20.926757812    
 172-17-60       2875.0000000        2897.2202148       -22.220214844    
 172-22-62       2868.0000000        2890.1582031       -22.158203125    
 172-27-6        2860.0000000        2887.0480957       -27.048095703    
 172-31-344      2859.0000000        2886.5815430       -27.581542969    
 172-36-335      2848.0000000        2870.5805664       -22.580566406    
 172-48-335      2848.0000000        2854.4423828       -6.4423828125    
 172-56-11       2853.0000000        2847.4704590        5.5295410156    
 172-61-59       2852.0000000        2845.0595703        6.9404296875    
 171-43-47       2829.0000000        2848.4753418       -19.475341797    
 171-48-335      2851.0000000        2854.4423828       -3.4423828125    
 171-56-11       2853.0000000        2847.4704590        5.5295410156    
 171-60-322      2853.0000000        2845.7407227        7.2592773438    
 171-65-298      2837.0000000        2839.8674316       -2.8674316406    
 171-71-13       2807.0000000        2812.1613770       -5.1613769531    
 164-33-152      2848.0000000        2892.3898926       -44.389892578    
 167-48-335      2864.0000000        2862.8364258        1.1635742188    
 167-56-11       2866.0000000        2857.1777344        8.8222656250    
 166-61-56       2871.0000000        2851.3022461        19.697753906    
 166-66-53       2858.0000000        2844.8520508        13.147949219    
 166-71-35       2829.0000000        2826.2824707        2.7175292969    
 178-48-336      2871.0000000        2877.5891113       -6.5891113281    
 178-56-11       2816.0000000        2873.5559082       -57.555908203    
 174-48-336      2870.0000000        2877.1638184       -7.1638183594    
 161-48-336      2887.0000000        2894.2683105       -7.2683105469    
 161-56-11       2895.0000000        2891.6687012        3.3312988281    
 161-61-56       2887.0000000        2887.4072266      -0.40722656250    
 161-66-54       2878.0000000        2882.1970215       -4.1970214844    
 161-71-41       2860.0000000        2870.1721191       -10.172119141    
 153-48-335      2915.0000000        2898.8789062        16.121093750    
 163-48-336      2902.0000000        2880.7006836        21.299316406    
 163-56-11       2903.0000000        2877.3352051        25.664794922    
 163-61-59       2896.0000000        2872.3298340        23.670166016    
 163-66-54       2886.0000000        2866.4909668        19.509033203    
 163-71-41       2865.0000000        2853.0378418        11.962158203    
 156-48-336      2913.0000000        2890.2849121        22.715087891    
 156-56-11       2916.0000000        2887.9741211        28.025878906    
 157-1-358       2927.0000000        2918.1975098        8.8024902344    
 157-22-54       2887.0000000        2900.2448730       -13.244873047    
 157-27-11       2885.0000000        2899.4284668       -14.428466797    
 157-31-348      2874.0000000        2892.8632812       -18.863281250    
 157-37-22       2831.0000000        2858.6899414       -27.689941406    
 157-43-47       2842.0000000        2845.3857422       -3.3857421875    
 157-48-335      2888.0000000        2868.7285156        19.271484375    
 157-56-9        2903.0000000        2862.7839355        40.216064453    
 157-60-322      2872.0000000        2857.2587891        14.741210938    
 157-65-298      2859.0000000        2849.2797852        9.7202148438    
 157-71-365      2824.0000000        2833.4470215       -9.4470214844    
 154-42-341      2833.0000000        2848.0263672       -15.026367188    
 159-38-4        2783.0000000        2837.4892578       -54.489257812    
 159-56-11       2840.0000000        2843.9238281       -3.9238281250    
 147-38-4        2820.0000000        2862.3095703       -42.309570312    
 147-42-334      2820.0000000        2859.7976074       -39.797607422    
 147-56-11       2889.0000000        2880.6906738        8.3093261719    
 149-1-280       2945.0000000        2933.1418457        11.858154297    
 150-48-335      2923.0000000        2895.3132324        27.686767578    
 150-56-9        2926.0000000        2894.6840820        31.315917969    
 137-48-335      2944.0000000        2915.1760254        28.823974609    
 137-56-9        2949.0000000        2914.9038086        34.096191406    
 137-61-56       2937.0000000        2903.2199707        33.780029297    
 137-66-53       2922.0000000        2897.5463867        24.453613281    
 136-38-4        2860.0000000        2880.3989258       -20.398925781    
 136-42-341      2880.0000000        2886.7089844       -6.7089843750    
 136-56-11       2894.0000000        2902.4655762       -8.4655761719    
 152-48-336      2949.0000000        2900.4279785        48.572021484    
 129-17-5        2953.0000000        2957.0415039       -4.0415039062    
 129-27-11       2944.0000000        2954.8239746       -10.823974609    
 123-42-348      2909.0000000        2926.5683594       -17.568359375    
 128-42-348      2921.0000000        2911.7260742        9.2739257812    
 128-56-11       2970.0000000        2935.2717285        34.728271484    
 133-12-362      2936.0000000        2939.4450684       -3.4450683594    
 133-17-61       2933.0000000        2939.0541992       -6.0541992188    
 133-27-6        2925.0000000        2934.0964355       -9.0964355469    
 133-31-335      2913.0000000        2928.5856934       -15.585693359    
 133-38-4        2866.0000000        2889.0505371       -23.050537109    
 133-42-341      2885.0000000        2887.1523438       -2.1523437500    
 133-48-335      2937.0000000        2910.8793945        26.120605469    
 133-56-9        2956.0000000        2910.2851562        45.714843750    
 133-71-365      2871.0000000        2882.1474609       -11.147460938    
 127-1-365       2959.0000000        2957.6005859        1.3994140625    
 127-17-1        2959.0000000        2953.2775879        5.7224121094    
 130-42-341      2915.0000000        2908.9436035        6.0563964844    
 130-48-335      2949.0000000        2925.8515625        23.148437500    
 130-56-9        2964.0000000        2924.4589844        39.541015625    
 126-27-11       2934.0000000        2951.4587402       -17.458740234    
 135-48-336      2897.0000000        2904.2309570       -7.2309570312    
 135-56-9        2902.0000000        2902.8176270      -0.81762695312    
 122-48-336      2920.0000000        2934.3994141       -14.399414062    
 120-12-310      2972.0000000        2978.9658203       -6.9658203125    
 120-17-5        2968.0000000        2978.5310059       -10.531005859    
 120-27-6        2963.0000000        2978.6347656       -15.634765625    
 120-31-335      2964.0000000        2976.1516113       -12.151611328    
 120-37-32       2931.0000000        2947.5478516       -16.547851562    
 120-42-341      2947.0000000        2953.5634766       -6.5634765625    
 120-48-336      2976.0000000        2974.9597168        1.0402832031    
 120-56-10       2983.0000000        2974.4685059        8.5314941406    
 120-61-59       2968.0000000        2966.0969238        1.9030761719    
 120-65-292      2963.0000000        2963.9909668      -0.99096679688    
 120-71-365      2938.0000000        2953.2307129       -15.230712891    
 118-38-4        2903.0000000        2950.2443848       -47.244384766    
 118-42-341      2933.0000000        2956.3442383       -23.344238281    
 118-48-349      2960.0000000        2963.4121094       -3.4121093750    
 118-56-10       2964.0000000        2953.2954102        10.704589844    
 107-27-69       2989.0000000        2990.1367188       -1.1367187500    
 114-48-336      2957.0000000        2976.0561523       -19.056152344    
 114-56-10       2966.0000000        2975.7336426       -9.7336425781    
 112-43-8        2956.0000000        2973.2800293       -17.280029297    
 112-48-335      2982.0000000        2990.4958496       -8.4958496094    
 112-56-9        2988.0000000        2993.5261230       -5.5261230469    
 112-61-52       2975.0000000        2984.9868164       -9.9868164062    
 112-66-45       2967.0000000        2980.7707520       -13.770751953    
 112-71-13       2956.0000000        2975.5278320       -19.527832031    
 104-60-299      2981.0000000        2999.0556641       -18.055664062    
 104-65-292      2974.0000000        2994.4902344       -20.490234375    
 100-22-61       2977.0000000        2993.5805664       -16.580566406    
 101-61-53       2981.0000000        3004.5395508       -23.539550781    
 97-22-54        2975.0000000        2997.1223145       -22.122314453    
 97-27-10        2963.0000000        3000.2673340       -37.267333984    
 98-43-8         2975.0000000        2994.1123047       -19.112304688    
 98-48-348       3003.0000000        3008.5881348       -5.5881347656    
 98-56-10        3007.0000000        3014.4682617       -7.4682617188    
 98-61-52        2997.0000000        3005.6191406       -8.6191406250    
 98-66-45        2989.0000000        2999.0322266       -10.032226562    
 105-43-69       2982.0000000        2977.9560547        4.0439453125    
 105-48-348      2993.0000000        2992.4326172       0.56738281250    
 105-56-10       3005.0000000        2995.1384277        9.8615722656    
 105-61-55       2989.0000000        2987.4565430        1.5434570312    
 105-66-45       2983.0000000        2983.2910156      -0.29101562500    
 99-5-1          2994.0000000        2997.1733398       -3.1733398438    
 106-56-10       2952.0000000        2974.3781738       -22.378173828    
 106-61-59       2947.0000000        2969.3781738       -22.378173828    
 106-66-45       2941.0000000        2967.8259277       -26.825927734    
 106-71-40       2928.0000000        2963.2873535       -35.287353516    
 95-71-40        2970.0000000        2995.0959473       -25.095947266    
 3393-25-338     1492.0000000        1543.7210693       -51.721069336    
 3312-25-338     1558.0000000        1577.4069824       -19.406982422    
 3288-25-341     1610.0000000        1603.6253662        6.3746337891    
 3282-25-341     1611.0000000        1624.0075684       -13.007568359    
 3259-25-341     1649.0000000        1668.0391846       -19.039184570    
 3222-25-229     1675.0000000        1703.7977295       -28.797729492    
 3213-25-337     1690.0000000        1695.8382568       -5.8382568359    
 3199-25-339     1687.0000000        1709.9235840       -22.923583984    
 3175-25-339     1683.0000000        1707.6312256       -24.631225586    
 3170-25-342     1701.0000000        1706.1750488       -5.1750488281    
 3200-25-336     1748.0000000        1770.2565918       -22.256591797    
 3154-25-336     1687.0000000        1728.6218262       -41.621826172    
 3138-25-336     1690.0000000        1737.1481934       -47.148193359    
 3046-25-344     1693.0000000        1738.3164062       -45.316406250    
 3036-25-344     1702.0000000        1739.7547607       -37.754760742    
 3038-25-339     1713.0000000        1768.4986572       -55.498657227    
 2684-25-3       1753.0000000        1773.4301758       -20.430175781    
 2919-25-351     1795.0000000        1833.9468994       -38.946899414    
 2719-25-113     2216.0000000        2186.4521484        29.547851562    
 1933-25-180     2246.0000000        2256.8435059       -10.843505859    
 1387-25-60      2343.0000000        2339.6213379        3.3786621094    
 1427-25-27      2341.0000000        2331.5637207        9.4362792969    
 1661-25-60      2359.0000000        2364.0561523       -5.0561523438    
 1390-25-365     2362.0000000        2345.3681641        16.631835938    
 1904-25-317     2511.0000000        2515.2873535       -4.2873535156    
 1379-25-91      2552.0000000        2575.2670898       -23.267089844    
 1796-25-321     2637.0000000        2623.9108887        13.089111328    
 1753-25-321     2623.0000000        2608.6682129        14.331787109    
 1705-25-328     2647.0000000        2654.0136719       -7.0136718750    
 1064-25-125     2385.0000000        2413.7646484       -28.764648438    
 831-25-335      2495.0000000        2498.5954590       -3.5954589844    
 1066-25-335     2783.0000000        2811.5268555       -28.526855469    
 723-25-363      2420.0000000        2391.2868652        28.713134766    
 568-25-307      2578.0000000        2567.8647461        10.135253906    
 544-25-309      2569.0000000        2578.0026855       -9.0026855469    
 780-25-329      2673.0000000        2545.6672363        127.33276367    
 526-25-307      2566.0000000        2581.4665527       -15.466552734    
 370-25-308      2652.0000000        2647.5068359        4.4931640625    
 265-25-7        2718.0000000        2731.3425293       -13.342529297    
 266-25-43       2692.0000000        2733.1135254       -41.113525391    
 232-25-314      2758.0000000        2774.5683594       -16.568359375    
 100-25-316      2977.0000000        2994.6545410       -17.654541016    
 3205-26-8       1660.0000000        1692.3344727       -32.334472656    
 3174-26-7       1673.0000000        1704.5329590       -31.532958984    
 3163-26-13      1681.0000000        1708.9628906       -27.962890625    
 3100-26-12      1686.0000000        1715.1923828       -29.192382812    
 3097-26-7       1674.0000000        1714.7679443       -40.767944336    
 3096-26-12      1693.0000000        1716.1342773       -23.134277344    
 3053-26-11      1688.0000000        1721.8558350       -33.855834961    
 3065-26-12      1701.0000000        1720.5761719       -19.576171875    
 3033-26-11      1699.0000000        1726.2052002       -27.205200195    
 2989-26-12      1709.0000000        1729.7265625       -20.726562500    
 3083-26-152     1700.0000000        1755.5228271       -55.522827148    
 3040-26-13      1692.0000000        1733.8306885       -41.830688477    
 2997-26-123     2239.0000000        2250.1267090       -11.126708984    
 3016-26-123     2282.0000000        2328.3071289       -46.307128906    
 2953-26-14      1718.0000000        1733.5941162       -15.594116211    
 2963-26-14      1715.0000000        1732.8793945       -17.879394531    
 2968-26-13      1779.0000000        1731.5593262        47.440673828    
 2906-26-13      1755.0000000        1742.7249756        12.275024414    
 2905-26-13      1726.0000000        1739.6491699       -13.649169922    
 2874-26-14      1767.0000000        1745.4617920        21.538208008    
 2780-26-13      1747.0000000        1756.9486084       -9.9486083984    
 2779-26-13      1763.0000000        1759.1611328        3.8388671875    
 2787-26-14      1788.0000000        1759.7592773        28.240722656    
 2790-26-14      1786.0000000        1763.2319336        22.768066406    
 2772-26-13      1750.0000000        1757.4942627       -7.4942626953    
 2639-26-13      1780.0000000        1776.4622803        3.5377197266    
 2974-26-15      1784.0000000        1818.3865967       -34.386596680    
 2937-26-14      1785.0000000        1810.4377441       -25.437744141    
 2885-26-14      1764.0000000        1766.7530518       -2.7530517578    
 2867-26-14      1706.0000000        1756.8572998       -50.857299805    
 2837-26-14      1710.0000000        1748.9636230       -38.963623047    
 2748-26-15      1763.0000000        1757.4674072        5.5325927734    
 2694-26-15      1833.0000000        1770.8365479        62.163452148    
 2933-26-15      1711.0000000        1739.0343018       -28.034301758    
 2851-26-14      1742.0000000        1741.9909668       9.03320312500E-03
 2711-26-15      1803.0000000        1768.7288818        34.271118164    
 2928-26-18      1795.0000000        1865.8919678       -70.891967773    
 2811-26-14      1815.0000000        1826.6748047       -11.674804688    
 2808-26-18      1802.0000000        1833.5849609       -31.584960938    
 2766-26-47      2059.0000000        2071.3840332       -12.384033203    
 2789-26-18      1813.0000000        1837.9379883       -24.937988281    
 2696-26-18      2033.0000000        2058.7145996       -25.714599609    
 2977-26-123     2364.0000000        2370.0529785       -6.0529785156    
 2914-26-120     2139.0000000        2121.4165039        17.583496094    
 2930-26-123     2338.0000000        2344.4892578       -6.4892578125    
 2898-26-120     2134.0000000        2115.2365723        18.763427734    
 2841-26-120     2191.0000000        2212.3503418       -21.350341797    
 2774-26-120     2200.0000000        2185.7727051        14.227294922    
 2762-26-26      2162.0000000        2168.3103027       -6.3103027344    
 2733-26-1       2092.0000000        2119.7099609       -27.709960938    
 2742-26-26      2135.0000000        2143.3312988       -8.3312988281    
 2670-26-18      2129.0000000        2145.6320801       -16.632080078    
 2660-26-120     2188.0000000        2178.2902832        9.7097167969    
 2931-26-22      2410.0000000        2444.9555664       -34.955566406    
 2595-26-12      1779.0000000        1783.6889648       -4.6889648438    
 2596-26-1       1776.0000000        1780.8099365       -4.8099365234    
 2589-26-11      1776.0000000        1781.4345703       -5.4345703125    
 2588-26-1       1774.0000000        1782.6536865       -8.6536865234    
 2564-26-12      1779.0000000        1785.6796875       -6.6796875000    
 2529-26-12      1789.0000000        1798.6074219       -9.6074218750    
 2449-26-11      1828.0000000        1827.7347412       0.26525878906    
 2492-26-13      1813.0000000        1807.5078125        5.4921875000    
 2452-26-12      1795.0000000        1809.8680420       -14.868041992    
 2303-26-1       1795.0000000        1823.3645020       -28.364501953    
 2296-26-12      1805.0000000        1822.4976807       -17.497680664    
 2301-26-14      1821.0000000        1825.6280518       -4.6280517578    
 2300-26-11      1839.0000000        1834.9619141        4.0380859375    
 2220-26-11      1844.0000000        1842.3818359        1.6181640625    
 2089-26-1       1825.0000000        1841.6287842       -16.628784180    
 2088-26-12      1831.0000000        1843.5559082       -12.555908203    
 2448-26-11      1837.0000000        1840.5120850       -3.5120849609    
 2099-26-1       1851.0000000        1855.5845947       -4.5845947266    
 1922-26-1       1870.0000000        1874.6401367       -4.6401367188    
 1983-26-11      1883.0000000        1888.1199951       -5.1199951172    
 1930-26-14      1888.0000000        1920.1696777       -32.169677734    
 2649-26-27      2098.0000000        2101.9045410       -3.9045410156    
 2505-26-32      2152.0000000        2172.3024902       -20.302490234    
 2464-26-29      2151.0000000        2178.0229492       -27.022949219    
 2388-26-32      2173.0000000        2200.5390625       -27.539062500    
 2412-26-20      2232.0000000        2250.8513184       -18.851318359    
 2289-26-29      2181.0000000        2206.8811035       -25.881103516    
 2236-26-19      2195.0000000        2212.2348633       -17.234863281    
 2183-26-29      2163.0000000        2209.1850586       -46.185058594    
 2215-26-104     2435.0000000        2421.1193848        13.880615234    
 2162-26-102     2323.0000000        2331.2045898       -8.2045898438    
 2130-26-69      2258.0000000        2263.5048828       -5.5048828125    
 1990-26-67      2274.0000000        2275.2546387       -1.2546386719    
 2103-26-67      2293.0000000        2291.6315918        1.3684082031    
 2055-26-102     2292.0000000        2296.0563965       -4.0563964844    
 1997-26-183     2331.0000000        2337.0959473       -6.0959472656    
 2339-26-104     2473.0000000        2492.1857910       -19.185791016    
 2100-26-117     2518.0000000        2522.6560059       -4.6560058594    
 2010-26-75      2379.0000000        2406.8493652       -27.849365234    
 1428-26-1       1959.0000000        1968.6228027       -9.6228027344    
 1383-26-8       2004.0000000        1983.4489746        20.551025391    
 1819-26-1       1912.0000000        1909.4909668        2.5090332031    
 1748-26-11      1915.0000000        1914.6004639       0.39953613281    
 1702-26-11      1892.0000000        1894.8708496       -2.8708496094    
 1710-26-1       1884.0000000        1897.6071777       -13.607177734    
 1663-26-1       1894.0000000        1902.3570557       -8.3570556641    
 1612-26-11      1921.0000000        1938.1098633       -17.109863281    
 1407-26-11      1992.0000000        1978.5977783        13.402221680    
 1364-26-11      1996.0000000        1984.8754883        11.124511719    
 1266-26-8       2015.0000000        2011.5815430        3.4184570312    
 1336-26-11      2008.0000000        2000.7207031        7.2792968750    
 1337-26-11      2002.0000000        1990.1364746        11.863525391    
 1264-26-1       2006.0000000        2008.7642822       -2.7642822266    
 1849-26-40      2254.0000000        2271.4025879       -17.402587891    
 1832-26-40      2225.0000000        2246.1672363       -21.167236328    
 1690-26-33      2246.0000000        2268.9479980       -22.947998047    
 1691-26-1       2240.0000000        2262.6120605       -22.612060547    
 1417-26-60      2352.0000000        2331.9592285        20.040771484    
 1386-26-34      2348.0000000        2338.6459961        9.3540039062    
 1329-26-35      2350.0000000        2357.6271973       -7.6271972656    
 1278-26-33      2365.0000000        2366.4836426       -1.4836425781    
 1879-26-69      2338.0000000        2341.7094727       -3.7094726562    
 1811-26-68      2332.0000000        2329.2731934        2.7268066406    
 1837-26-60      2337.0000000        2338.1677246       -1.1677246094    
 1907-26-68      2328.0000000        2327.3649902       0.63500976562    
 1888-26-68      2311.0000000        2309.0610352        1.9389648438    
 1779-26-67      2313.0000000        2306.6118164        6.3881835938    
 1619-26-67      2340.0000000        2301.1899414        38.810058594    
 1723-26-60      2306.0000000        2306.2392578      -0.23925781250    
 1694-26-68      2322.0000000        2325.8776855       -3.8776855469    
 1658-26-67      2325.0000000        2317.6684570        7.3315429688    
 1655-26-69      2339.0000000        2339.1977539      -0.19775390625    
 1614-26-69      2341.0000000        2337.1982422        3.8017578125    
 1596-26-69      2343.0000000        2345.2583008       -2.2583007812    
 1630-26-69      2351.0000000        2354.0002441       -3.0002441406    
 1552-26-74      2343.0000000        2334.9343262        8.0656738281    
 1467-26-76      2341.0000000        2318.1638184        22.836181641    
 1470-26-74      2328.0000000        2324.5932617        3.4067382812    
 1455-26-81      2338.0000000        2325.5207520        12.479248047    
 1443-26-81      2342.0000000        2327.6958008        14.304199219    
 1465-26-74      2337.0000000        2327.7822266        9.2177734375    
 1440-26-74      2343.0000000        2336.6413574        6.3586425781    
 1474-26-75      2350.0000000        2349.1003418       0.89965820312    
 1453-26-71      2351.0000000        2345.2802734        5.7197265625    
 1488-26-70      2350.0000000        2374.8759766       -24.875976562    
 1502-26-71      2352.0000000        2368.6987305       -16.698730469    
 1477-26-60      2354.0000000        2368.8430176       -14.843017578    
 1458-26-153     2351.0000000        2375.7753906       -24.775390625    
 1429-26-71      2371.0000000        2384.4323730       -13.432373047    
 1397-26-71      2361.0000000        2359.0854492        1.9145507812    
 1416-26-76      2364.0000000        2332.7436523        31.256347656    
 1312-26-88      2410.0000000        2374.5478516        35.452148438    
 1359-26-82      2387.0000000        2404.6264648       -17.626464844    
 1333-26-82      2391.0000000        2410.9458008       -19.945800781    
 1295-26-84      2407.0000000        2430.0649414       -23.064941406    
 1892-26-193     2511.0000000        2533.6210938       -22.621093750    
 1940-26-109     2485.0000000        2486.7287598       -1.7287597656    
 1659-26-71      2364.0000000        2393.6989746       -29.698974609    
 1671-26-60      2365.0000000        2385.1250000       -20.125000000    
 1627-26-70      2374.0000000        2391.1855469       -17.185546875    
 1677-26-83      2490.0000000        2485.3579102        4.6420898438    
 1602-26-83      2397.0000000        2470.2145996       -73.214599609    
 1604-26-83      2484.0000000        2483.6589355       0.34106445312    
 1669-26-109     2529.0000000        2551.2824707       -22.282470703    
 1622-26-109     2528.0000000        2548.2329102       -20.232910156    
 1553-26-88      2529.0000000        2523.0258789        5.9741210938    
 1563-26-88      2526.0000000        2510.5107422        15.489257812    
 1586-26-84      2483.0000000        2488.5419922       -5.5419921875    
 1507-26-75      2376.0000000        2414.3181152       -38.318115234    
 1495-26-60      2377.0000000        2418.6435547       -41.643554688    
 1484-26-75      2370.0000000        2412.1691895       -42.169189453    
 1489-26-88      2488.0000000        2491.9821777       -3.9821777344    
 1464-26-88      2529.0000000        2505.6201172        23.379882812    
 1414-26-95      2547.0000000        2582.6110840       -35.611083984    
 1395-26-88      2457.0000000        2465.3645020       -8.3645019531    
 1377-26-83      2461.0000000        2466.7561035       -5.7561035156    
 1375-26-88      2509.0000000        2496.4985352        12.501464844    
 1396-26-70      2427.0000000        2435.2363281       -8.2363281250    
 1415-26-84      2403.0000000        2414.6318359       -11.631835938    
 1300-26-213     2560.0000000        2571.6591797       -11.659179688    
 1276-26-95      2557.0000000        2603.9172363       -46.917236328    
 1354-26-95      2713.0000000        2684.2255859        28.774414062    
 1358-26-95      2714.0000000        2673.1333008        40.866699219    
 846-26-13       2358.0000000        2360.6889648       -2.6889648438    
 833-26-13       2354.0000000        2343.9489746        10.051025391    
 827-26-13       2353.0000000        2333.6464844        19.353515625    
 845-26-13       2306.0000000        2278.9741211        27.025878906    
 1105-26-118     2038.0000000        2063.3784180       -25.378417969    
 1120-26-13      2034.0000000        2068.0676270       -34.067626953    
 1088-26-91      2090.0000000        2074.0197754        15.980224609    
 809-26-13       2198.0000000        2202.7414551       -4.7414550781    
 1235-26-36      2364.0000000        2368.3571777       -4.3571777344    
 1239-26-33      2364.0000000        2365.9372559       -1.9372558594    
 1227-26-33      2367.0000000        2373.5200195       -6.5200195312    
 1219-26-36      2358.0000000        2373.7897949       -15.789794922    
 1168-26-35      2377.0000000        2386.8503418       -9.8503417969    
 1140-26-35      2383.0000000        2395.2490234       -12.249023438    
 1160-26-36      2371.0000000        2394.4965820       -23.496582031    
 1121-26-36      2378.0000000        2406.2795410       -28.279541016    
 1080-26-36      2443.0000000        2424.9543457        18.045654297    
 1048-26-36      2445.0000000        2429.4567871        15.543212891    
 1075-26-36      2428.0000000        2420.0695801        7.9304199219    
 1016-26-36      2387.0000000        2429.8398438       -42.839843750    
 1011-26-36      2378.0000000        2433.2468262       -55.246826172    
 1083-26-35      2391.0000000        2408.8381348       -17.838134766    
 997-26-244      2404.0000000        2423.7988281       -19.798828125    
 910-26-166      2463.0000000        2458.2390137        4.7609863281    
 1212-26-64      2374.0000000        2420.3090820       -46.309082031    
 1131-26-349     2441.0000000        2415.9477539        25.052246094    
 1188-26-60      2481.0000000        2434.9169922        46.083007812    
 1076-26-341     2520.0000000        2489.9682617        30.031738281    
 1000-26-18      2522.0000000        2504.2761230        17.723876953    
 1095-26-18      2462.0000000        2451.8012695        10.198730469    
 1035-26-61      2488.0000000        2461.0827637        26.917236328    
 1037-26-60      2477.0000000        2442.9594727        34.040527344    
 878-26-60       2496.0000000        2476.4211426        19.578857422    
 1250-26-84      2437.0000000        2451.4323730       -14.432373047    
 1251-26-84      2433.0000000        2449.5131836       -16.513183594    
 1195-26-81      2500.0000000        2481.9189453        18.081054688    
 1110-26-62      2530.0000000        2514.3491211        15.650878906    
 1044-26-82      2565.0000000        2581.7490234       -16.749023438    
 1017-26-62      2545.0000000        2559.7155762       -14.715576172    
 973-26-95       2601.0000000        2634.6091309       -33.609130859    
 870-26-95       2615.0000000        2657.0283203       -42.028320312    
 3417-26-95      2627.0000000        2656.5473633       -29.547363281    
 1246-26-305     2722.0000000        2734.2502441       -12.250244141    
 1593-26-18      2766.0000000        2791.8945312       -25.894531250    
 757-26-141      2333.0000000        2382.8854980       -49.885498047    
 758-26-1        2395.0000000        2402.7551270       -7.7551269531    
 722-26-64       2443.0000000        2453.0773926       -10.077392578    
 737-26-1        2415.0000000        2427.7778320       -12.777832031    
 656-26-1        2498.0000000        2508.2753906       -10.275390625    
 602-26-1        2502.0000000        2527.9355469       -25.935546875    
 598-26-1        2492.0000000        2483.7458496        8.2541503906    
 720-26-1        2222.0000000        2254.2165527       -32.216552734    
 674-26-43       2549.0000000        2545.2939453        3.7060546875    
 673-26-49       2545.0000000        2557.1713867       -12.171386719    
 810-26-43       2512.0000000        2495.9260254        16.073974609    
 785-26-65       2582.0000000        2609.1499023       -27.149902344    
 681-26-96       2620.0000000        2634.1650391       -14.165039062    
 608-26-64       2631.0000000        2658.0439453       -27.043945312    
 559-26-60       2643.0000000        2684.9479980       -41.947998047    
 731-26-98       2678.0000000        2725.2790527       -47.279052734    
 683-26-91       2679.0000000        2719.6630859       -40.663085938    
 496-26-56       2578.0000000        2589.2749023       -11.274902344    
 408-26-46       2653.0000000        2693.9609375       -40.960937500    
 391-26-72       2685.0000000        2655.7365723        29.263427734    
 451-26-85       2697.0000000        2744.9855957       -47.985595703    
 477-26-63       2661.0000000        2651.9152832        9.0847167969    
 302-26-47       2680.0000000        2688.0444336       -8.0444335938    
 295-26-47       2724.0000000        2699.8342285        24.165771484    
 281-26-47       2687.0000000        2709.3679199       -22.367919922    
 270-26-41       2694.0000000        2724.4541016       -30.454101562    
 278-26-11       2716.0000000        2718.5209961       -2.5209960938    
 250-26-11       2727.0000000        2736.2866211       -9.2866210938    
 3333-27-99      1707.0000000        1727.9020996       -20.902099609    
 3176-27-347     1652.0000000        1694.5107422       -42.510742188    
 3055-27-126     2453.0000000        2509.5771484       -56.577148438    
 2747-27-253     2052.0000000        2083.0380859       -31.038085938    
 995-27-236      2110.0000000        2094.0451660        15.954833984    
 778-27-348      2610.0000000        2592.9208984        17.079101562    
 718-27-151      2631.0000000        2649.8361816       -18.836181641    
 3239-30-335     2915.0000000        2885.5874023        29.412597656    
 3181-30-185     2850.0000000        2844.4072266        5.5927734375    
 3211-30-274     2885.0000000        2916.3059082       -31.305908203    
 3189-30-181     2873.0000000        2861.7993164        11.200683594    
 3198-30-274     2910.0000000        2893.1987305        16.801269531    
 3192-30-274     2905.0000000        2891.9650879        13.034912109    
 3124-30-213     2790.0000000        2807.5534668       -17.553466797    
 2832-30-108     2015.0000000        2026.9866943       -11.986694336    
 2673-30-244     2073.0000000        2108.3205566       -35.320556641    
 2876-30-99      2185.0000000        2203.0002441       -18.000244141    
 2774-30-91      2193.0000000        2183.3000488        9.6999511719    
 2733-30-27      2093.0000000        2119.8789062       -26.878906250    
 2603-30-29      2118.0000000        2129.8227539       -11.822753906    
 2652-30-27      2115.0000000        2134.7148438       -19.714843750    
 2576-30-30      2130.0000000        2166.5620117       -36.562011719    
 2542-30-30      2154.0000000        2179.2148438       -25.214843750    
 2505-30-29      2150.0000000        2174.9858398       -24.985839844    
 2355-30-1       2157.0000000        2185.5769043       -28.576904297    
 2464-30-29      2154.0000000        2179.7631836       -25.763183594    
 2357-30-30      2173.0000000        2194.9760742       -21.976074219    
 2373-30-30      2161.0000000        2195.0122070       -34.012207031    
 2446-30-30      2180.0000000        2202.2551270       -22.255126953    
 2445-30-121     2188.0000000        2214.4306641       -26.430664062    
 2237-30-34      2202.0000000        2220.9033203       -18.903320312    
 2137-30-35      2201.0000000        2215.6120605       -14.612060547    
 2109-30-30      2196.0000000        2213.5700684       -17.570068359    
 2038-30-1       2202.0000000        2223.1025391       -21.102539062    
 2059-30-35      2212.0000000        2224.1770020       -12.177001953    
 2227-30-273     2279.0000000        2274.0007324        4.9992675781    
 2056-30-18      2281.0000000        2266.8110352        14.188964844    
 2019-30-111     2276.0000000        2269.1701660        6.8298339844    
 1998-30-244     2298.0000000        2310.7275391       -12.727539062    
 2086-30-14      2348.0000000        2343.2011719        4.7988281250    
 2069-30-244     2359.0000000        2363.2490234       -4.2490234375    
 2081-30-105     2369.0000000        2353.3437500        15.656250000    
 2246-30-335     2440.0000000        2494.5788574       -54.578857422    
 2001-30-305     2546.0000000        2535.5017090        10.498291016    
 1617-30-121     2310.0000000        2285.4479980        24.552001953    
 1391-30-43      2344.0000000        2336.4692383        7.5307617188    
 1427-30-11      2340.0000000        2336.2185059        3.7814941406    
 1400-30-42      2345.0000000        2339.7253418        5.2746582031    
 1619-30-57      2328.0000000        2296.6933594        31.306640625    
 1693-30-51      2339.0000000        2343.3923340       -4.3923339844    
 1500-30-56      2304.0000000        2312.2836914       -8.2836914062    
 1312-30-349     2406.0000000        2363.0971680        42.902832031    
 1874-30-1       2575.0000000        2578.2053223       -3.2053222656    
 1857-30-157     2523.0000000        2527.6657715       -4.6657714844    
 1843-30-213     2506.0000000        2507.7141113       -1.7141113281    
 1846-30-43      2486.0000000        2459.3173828        26.682617188    
 1676-30-79      2516.0000000        2505.9533691        10.046630859    
 1574-30-246     2530.0000000        2542.6999512       -12.699951172    
 1368-30-60      2431.0000000        2437.2182617       -6.2182617188    
 1366-30-43      2461.0000000        2463.4250488       -2.4250488281    
 1348-30-43      2520.0000000        2507.0588379        12.941162109    
 1320-30-335     2645.0000000        2587.7529297        57.247070312    
 1276-30-121     2559.0000000        2604.1706543       -45.170654297    
 1751-30-305     2638.0000000        2637.6105957       0.38940429688    
 1752-30-305     2582.0000000        2589.9484863       -7.9484863281    
 1749-30-305     2565.0000000        2581.8447266       -16.844726562    
 1754-30-130     2612.0000000        2600.7895508        11.210449219    
 812-30-6        2350.0000000        2365.1423340       -15.142333984    
 1235-30-43      2363.0000000        2370.5270996       -7.5270996094    
 1197-30-43      2463.0000000        2413.1882324        49.811767578    
 1187-30-182     2476.0000000        2427.2170410        48.782958984    
 1194-30-1       2495.0000000        2466.2678223        28.732177734    
 529-30-351      2510.0000000        2539.0290527       -29.029052734    
 686-30-127      2532.0000000        2531.6010742       0.39892578125    
 488-30-44       2517.0000000        2566.4860840       -49.486083984    
 485-30-351      2554.0000000        2566.4426270       -12.442626953    
 476-30-60       2570.0000000        2576.9648438       -6.9648437500    
 408-30-349      2630.0000000        2694.3571777       -64.357177734    
 402-30-213      2615.0000000        2651.2609863       -36.260986328    
 366-30-42       2663.0000000        2665.1574707       -2.1574707031    
 301-30-342      2660.0000000        2688.7451172       -28.745117188    
 270-30-342      2667.0000000        2718.0180664       -51.018066406    
 3376-31-2       1547.0000000        1569.9962158       -22.996215820    
 3351-31-101     1629.0000000        1640.1975098       -11.197509766    
 3272-31-104     2957.0000000        2921.6403809        35.359619141    
 3145-31-193     1750.0000000        1690.4605713        59.539428711    
 3161-31-244     1725.0000000        1697.8933105        27.106689453    
 3038-31-1       1696.0000000        1754.3546143       -58.354614258    
 3243-31-1       2895.0000000        2887.9511719        7.0488281250    
 3256-31-104     2929.0000000        2887.8500977        41.149902344    
 3208-31-273     2890.0000000        2854.2915039        35.708496094    
 3153-31-348     2821.0000000        2815.4589844        5.5410156250    
 3164-31-283     2845.0000000        2841.8681641        3.1318359375    
 3093-31-104     2691.0000000        2738.1494141       -47.149414062    
 2787-31-57      1715.0000000        1728.4393311       -13.439331055    
 2734-31-1       1719.0000000        1727.1376953       -8.1376953125    
 2823-31-196     1708.0000000        1720.3767090       -12.376708984    
 2927-31-29      1953.0000000        1944.3804932        8.6195068359    
 2743-31-220     2083.0000000        2093.6613770       -10.661376953    
 2756-31-252     2034.0000000        2068.1437988       -34.143798828    
 2699-31-1       2064.0000000        2092.4616699       -28.461669922    
 2687-31-266     2081.0000000        2086.0256348       -5.0256347656    
 2615-31-1       1813.0000000        1805.6590576        7.3409423828    
 2650-31-60      2101.0000000        2091.8200684        9.1799316406    
 2558-31-121     2120.0000000        2136.8774414       -16.877441406    
 2475-31-120     2142.0000000        2182.5058594       -40.505859375    
 2460-31-120     2159.0000000        2185.6125488       -26.612548828    
 2427-31-120     2172.0000000        2200.2395020       -28.239501953    
 2326-31-121     2234.0000000        2236.3720703       -2.3720703125    
 2212-31-121     2209.0000000        2217.1013184       -8.1013183594    
 1991-31-36      2203.0000000        2223.5812988       -20.581298828    
 1958-31-36      2205.0000000        2228.3281250       -23.328125000    
 2057-31-121     2211.0000000        2227.3940430       -16.394042969    
 1951-31-36      2239.0000000        2252.1274414       -13.127441406    
 2014-31-121     2308.0000000        2282.9477539        25.052246094    
 1974-31-120     2295.0000000        2284.5375977        10.462402344    
 2102-31-119     2325.0000000        2333.8635254       -8.8635253906    
 2054-31-91      2321.0000000        2327.0900879       -6.0900878906    
 2339-31-78      2474.0000000        2493.4504395       -19.450439453    
 2330-31-196     2520.0000000        2560.9567871       -40.956787109    
 2100-31-78      2521.0000000        2522.6965332       -1.6965332031    
 2043-31-211     2485.0000000        2485.0600586      -6.00585937500E-02
 1849-31-1       2249.0000000        2261.9919434       -12.991943359    
 1471-31-113     2330.0000000        2316.3979492        13.602050781    
 1461-31-40      2308.0000000        2316.8227539       -8.8227539062    
 1321-31-40      2335.0000000        2350.1787109       -15.178710938    
 1306-31-113     2337.0000000        2350.9130859       -13.913085938    
 1307-31-113     2342.0000000        2350.7297363       -8.7297363281    
 1305-31-121     2345.0000000        2352.8891602       -7.8891601562    
 1886-31-119     2327.0000000        2332.3176270       -5.3176269531    
 1879-31-119     2322.0000000        2325.3139648       -3.3139648438    
 1779-31-119     2295.0000000        2292.5419922        2.4580078125    
 1724-31-118     2294.0000000        2290.8100586        3.1899414062    
 1694-31-119     2307.0000000        2310.0007324       -3.0007324219    
 1695-31-120     2314.0000000        2307.4489746        6.5510253906    
 1596-31-119     2320.0000000        2330.1804199       -10.180419922    
 1683-31-68      2347.0000000        2359.2019043       -12.201904297    
 1552-31-117     2327.0000000        2324.2756348        2.7243652344    
 1533-31-118     2316.0000000        2310.2751465        5.7248535156    
 1813-31-117     2308.0000000        2308.3950195      -0.39501953125    
 1538-31-117     2310.0000000        2306.0046387        3.9953613281    
 1470-31-117     2313.0000000        2316.5554199       -3.5554199219    
 1453-31-117     2336.0000000        2338.0808105       -2.0808105469    
 1502-31-120     2339.0000000        2363.1083984       -24.108398438    
 1416-31-62      2338.0000000        2325.8371582        12.162841797    
 1784-31-148     2366.0000000        2381.7158203       -15.715820312    
 1659-31-114     2355.0000000        2382.5290527       -27.529052734    
 1671-31-114     2350.0000000        2370.1352539       -20.135253906    
 1602-31-114     2371.0000000        2459.8481445       -88.848144531    
 1507-31-114     2358.0000000        2400.4421387       -42.442138672    
 1514-31-114     2349.0000000        2387.2858887       -38.285888672    
 1495-31-69      2358.0000000        2404.6604004       -46.660400391    
 1484-31-114     2348.0000000        2398.0422363       -50.042236328    
 1483-31-114     2436.0000000        2464.2026367       -28.202636719    
 1239-31-113     2352.0000000        2363.0288086       -11.028808594    
 1234-31-113     2349.0000000        2360.8264160       -11.826416016    
 1099-31-117     2361.0000000        2415.0332031       -54.033203125    
 853-31-118      2482.0000000        2466.2443848        15.755615234    
 720-31-1        2221.0000000        2252.0095215       -31.009521484    
 729-31-118      2508.0000000        2514.2380371       -6.2380371094    
 679-31-118      2516.0000000        2526.6284180       -10.628417969    
 810-31-118      2479.0000000        2481.4501953       -2.4501953125    
 299-31-59       2671.0000000        2695.8557129       -24.855712891    
 3281-32-351     1586.0000000        1625.1401367       -39.140136719    
 3347-32-97      2965.0000000        2958.3901367        6.6098632812    
 3051-32-152     1691.0000000        1693.3378906       -2.3378906250    
 3004-32-94      2011.0000000        2005.8520508        5.1479492188    
 2997-32-94      2234.0000000        2250.4008789       -16.400878906    
 3016-32-94      2280.0000000        2330.5100098       -50.510009766    
 3055-32-94      2452.0000000        2514.4731445       -62.473144531    
 2880-32-95      2083.0000000        2072.9140625        10.085937500    
 2883-32-196     2011.0000000        2028.9804688       -17.980468750    
 2977-32-96      2361.0000000        2373.3999023       -12.399902344    
 2914-32-96      2130.0000000        2118.2612305        11.738769531    
 2930-32-96      2337.0000000        2343.7062988       -6.7062988281    
 2869-32-96      2320.0000000        2333.3144531       -13.314453125    
 2898-32-96      2125.0000000        2112.1696777        12.830322266    
 2841-32-96      2182.0000000        2203.0678711       -21.067871094    
 2742-32-95      2130.0000000        2139.6520996       -9.6520996094    
 2956-32-95      2527.0000000        2523.3359375        3.6640625000    
 2441-32-216     1804.0000000        1774.3298340        29.670166016    
 2477-32-137     1798.0000000        1797.9591064       4.08935546875E-02
 2334-32-335     2382.0000000        2385.6809082       -3.6809082031    
 2314-32-342     2365.0000000        2356.6025391        8.3974609375    
 2331-32-29      2480.0000000        2530.8693848       -50.869384766    
 2128-32-154     2478.0000000        2445.4018555        32.598144531    
 2092-32-154     2468.0000000        2438.6984863        29.301513672    
 2085-32-154     2448.0000000        2474.0976562       -26.097656250    
 1278-32-50      2361.0000000        2358.1296387        2.8703613281    
 1791-32-119     2331.0000000        2336.5517578       -5.5517578125    
 1131-32-62      2436.0000000        2406.4086914        29.591308594    
 1035-32-71      2477.0000000        2444.9404297        32.059570312    
 2799-35-122     1998.0000000        2030.9808350       -32.980834961    
 861-35-329      2230.0000000        2159.4445801        70.555419922    
 3038-36-52      1680.0000000        1742.1185303       -62.118530273    
 2937-36-86      1764.0000000        1790.2163086       -26.216308594    
 1428-36-91      1955.0000000        1938.4428711        16.557128906    
 1106-36-164     2031.0000000        2046.3114014       -15.311401367    
 727-36-333      2585.0000000        2607.7324219       -22.732421875    
 492-36-108      2478.0000000        2511.7517090       -33.751708984    
 380-36-78       2594.0000000        2473.5026855        120.49731445    
 3318-37-364     1613.0000000        1650.1519775       -37.151977539    
 2476-37-182     2165.0000000        2190.9274902       -25.927490234    
 2437-37-1       2175.0000000        2197.8830566       -22.883056641    
 1436-37-201     2321.0000000        2333.1450195       -12.145019531    
 974-37-342      2328.0000000        2407.4831543       -79.483154297    
 981-37-84       2562.0000000        2593.0910645       -31.091064453    
 814-37-58       2570.0000000        2600.9211426       -30.921142578    
 697-37-41       2615.0000000        2659.7785645       -44.778564453    
 659-37-16       2662.0000000        2622.1845703        39.815429688    

 HEAD/DRAWDOWN SUM OF SQUARED DIFFERENCE:    7.98971E+06

 Run end date and time (yyyy/mm/dd hh:mm:ss): 2022/01/11 12:04:23
 Elapsed run time: 36.498 Seconds

